*SPEF "ieee 1481-1999"
*DESIGN "des"
*DATE "11:11:11 Fri 11 11, 1111"
*VENDOR "OpenRCX"
*PROGRAM "Parallel Extraction"
*VERSION "1.0"
*DESIGN_FLOW "NAME_SCOPE LOCAL" "PIN_CAP NONE"
*DIVIDER /
*DELIMITER :
*BUS_DELIMITER []
*T_UNIT 1 NS
*C_UNIT 1 PF
*R_UNIT 1 OHM
*L_UNIT 1 HENRY

*NAME_MAP
*1 DATA\.din\[0\]
*2 DATA\.din\[10\]
*3 DATA\.din\[11\]
*4 DATA\.din\[12\]
*5 DATA\.din\[13\]
*6 DATA\.din\[14\]
*7 DATA\.din\[15\]
*8 DATA\.din\[16\]
*9 DATA\.din\[17\]
*10 DATA\.din\[18\]
*11 DATA\.din\[19\]
*12 DATA\.din\[1\]
*13 DATA\.din\[20\]
*14 DATA\.din\[21\]
*15 DATA\.din\[22\]
*16 DATA\.din\[23\]
*17 DATA\.din\[24\]
*18 DATA\.din\[25\]
*19 DATA\.din\[26\]
*20 DATA\.din\[27\]
*21 DATA\.din\[28\]
*22 DATA\.din\[29\]
*23 DATA\.din\[2\]
*24 DATA\.din\[30\]
*25 DATA\.din\[31\]
*26 DATA\.din\[3\]
*27 DATA\.din\[4\]
*28 DATA\.din\[5\]
*29 DATA\.din\[6\]
*30 DATA\.din\[7\]
*31 DATA\.din\[8\]
*32 DATA\.din\[9\]
*33 DEMUX16X4\.d_in
*34 _000_
*35 _001_
*36 _002_
*37 _003_
*38 _004_
*39 _005_
*40 _006_
*41 _007_
*42 _008_
*43 _009_
*44 _010_
*45 _011_
*46 _012_
*47 _013_
*48 _014_
*49 _015_
*50 _016_
*51 _017_
*52 _018_
*53 _019_
*54 _020_
*55 _021_
*56 _022_
*57 _023_
*58 _024_
*59 _025_
*60 _026_
*61 _027_
*62 _028_
*63 _029_
*64 _030_
*65 _031_
*66 _032_
*67 _033_
*68 _034_
*69 _035_
*70 _036_
*71 _037_
*72 _038_
*73 _039_
*74 _040_
*75 _041_
*76 _042_
*77 _043_
*78 _044_
*79 _045_
*80 _046_
*81 _047_
*82 _048_
*83 _049_
*84 _050_
*85 _051_
*86 _052_
*87 _053_
*88 _054_
*89 _055_
*90 _056_
*91 _057_
*92 _058_
*93 _059_
*94 _060_
*95 _061_
*96 _062_
*97 _063_
*98 _064_
*99 _065_
*100 _066_
*101 _067_
*102 _068_
*103 clknet_0_clock
*104 _070_
*105 _071_
*106 _072_
*107 _073_
*108 _074_
*109 _075_
*110 _076_
*111 _077_
*112 _078_
*113 _079_
*114 _080_
*115 _081_
*116 _082_
*117 _083_
*118 _084_
*119 _085_
*120 _086_
*121 _087_
*122 _088_
*123 _089_
*124 _090_
*125 _091_
*126 _092_
*127 _093_
*128 _094_
*129 _095_
*130 _096_
*131 _097_
*132 _098_
*133 _099_
*134 _100_
*135 _101_
*136 _102_
*137 _103_
*138 _104_
*139 _105_
*140 _106_
*141 net7
*142 net6
*143 _109_
*144 net5
*145 _111_
*146 _112_
*147 _113_
*148 _114_
*149 _115_
*150 _116_
*151 _117_
*152 _118_
*153 _119_
*154 _120_
*155 _121_
*156 _122_
*157 _123_
*158 _124_
*159 _125_
*160 _126_
*161 _127_
*162 _128_
*163 net4
*164 _130_
*165 net3
*166 _132_
*167 _133_
*168 _134_
*169 _135_
*170 _136_
*171 _137_
*172 net2
*173 _139_
*174 _140_
*175 _141_
*176 _142_
*177 net1
*178 _144_
*179 _145_
*180 _146_
*181 _147_
*182 _148_
*183 _149_
*185 _151_
*186 _152_
*187 _153_
*188 _154_
*190 _156_
*191 _157_
*192 _158_
*193 _159_
*194 _160_
*195 _161_
*196 _162_
*197 _163_
*198 _164_
*199 _165_
*200 _166_
*201 _167_
*202 _168_
*203 _169_
*204 _170_
*205 clock
*206 din
*207 dout[0]
*208 dout[10]
*209 dout[11]
*210 dout[12]
*211 dout[13]
*212 dout[14]
*213 dout[15]
*214 dout[16]
*215 dout[17]
*216 dout[18]
*217 dout[19]
*218 dout[1]
*219 dout[20]
*220 dout[21]
*221 dout[22]
*222 dout[23]
*223 dout[24]
*224 dout[25]
*225 dout[26]
*226 dout[27]
*227 dout[28]
*228 dout[29]
*229 dout[2]
*230 dout[30]
*231 dout[31]
*232 dout[3]
*233 dout[4]
*234 dout[5]
*235 dout[6]
*236 dout[7]
*237 dout[8]
*238 dout[9]
*239 enable
*240 load
*241 net8
*242 net9
*243 net10
*244 net11
*245 net12
*246 net13
*247 net14
*248 net15
*249 net16
*250 net17
*251 net18
*252 net19
*253 net20
*254 net21
*255 net22
*256 net23
*257 net24
*258 net25
*259 net26
*260 net27
*261 net28
*262 net29
*263 net30
*264 net31
*265 net32
*266 net33
*267 net34
*268 net35
*269 net36
*270 net37
*271 net38
*272 net39
*273 net40
*274 net41
*275 net42
*276 net43
*277 net44
*278 net45
*279 net46
*280 net47
*281 net48
*282 net49
*283 net50
*284 net51
*285 net52
*286 net53
*287 net54
*288 net55
*289 net56
*290 net57
*291 net58
*292 net59
*293 net60
*294 net61
*295 net62
*296 net63
*297 net64
*298 net65
*299 net66
*300 net67
*301 net68
*302 net69
*303 net70
*304 net71
*305 net72
*306 clknet_2_0__leaf_clock
*307 clknet_2_1__leaf_clock
*308 clknet_2_2__leaf_clock
*309 clknet_2_3__leaf_clock
*310 net73
*311 net74
*312 net75
*313 PHY_8
*314 PHY_7
*315 _173_
*316 PHY_6
*317 _175_
*318 _176_
*319 _177_
*320 _178_
*321 _179_
*322 _180_
*323 _181_
*324 _182_
*325 _183_
*326 _184_
*327 _185_
*328 _186_
*329 _187_
*330 _188_
*331 _189_
*332 _190_
*333 _191_
*334 _192_
*335 _193_
*336 _194_
*337 _195_
*338 _196_
*339 _197_
*340 _198_
*341 _199_
*342 _200_
*343 _201_
*344 _202_
*345 _203_
*346 _204_
*347 _205_
*348 _206_
*349 _207_
*350 _208_
*351 _209_
*352 _210_
*353 _211_
*354 _212_
*355 _213_
*356 _214_
*357 _215_
*358 _216_
*359 _217_
*360 _218_
*361 _219_
*362 _220_
*363 _221_
*364 _222_
*365 _223_
*366 _224_
*367 clkbuf_0_clock
*368 _226_
*369 _227_
*370 _228_
*371 _229_
*372 _230_
*373 _231_
*374 _232_
*375 _233_
*376 _234_
*377 _235_
*378 _236_
*379 _237_
*380 _238_
*381 _239_
*382 _240_
*383 _241_
*384 _242_
*385 _243_
*386 _244_
*387 _245_
*388 _246_
*389 _247_
*390 _248_
*391 _249_
*392 _250_
*393 _251_
*394 _252_
*395 _253_
*396 _254_
*397 _255_
*398 _256_
*399 _257_
*400 _258_
*401 PHY_5
*402 _260_
*403 _261_
*404 PHY_4
*405 _263_
*406 _264_
*407 _265_
*408 _266_
*409 _267_
*410 _268_
*411 _269_
*412 _270_
*413 _271_
*414 _272_
*415 _273_
*416 _274_
*417 PHY_3
*418 _276_
*419 _277_
*420 _278_
*421 _279_
*422 _280_
*423 _281_
*424 _282_
*425 _283_
*426 PHY_2
*427 _285_
*428 _286_
*429 _287_
*430 _288_
*431 _289_
*432 _290_
*433 _291_
*434 _292_
*435 _293_
*436 _294_
*437 _295_
*438 _296_
*439 PHY_1
*440 _298_
*441 _299_
*442 _300_
*443 _301_
*444 _302_
*445 _303_
*446 _304_
*447 _305_
*448 PHY_0
*449 _307_
*450 _308_
*451 _309_
*452 _310_
*453 _311_
*454 _312_
*455 _313_
*456 _314_
*457 _315_
*458 _316_
*459 _317_
*460 _318_
*461 _319_
*462 _320_
*463 _321_
*464 _322_
*465 _323_
*466 _324_
*467 _325_
*468 _326_
*469 _327_
*470 _328_
*471 _329_
*472 _330_
*473 _331_
*474 _332_
*475 _333_
*476 _334_
*477 _335_
*478 _336_
*479 _337_
*480 _338_
*481 _339_
*482 _340_
*483 _341_
*484 _342_
*485 _343_
*486 _344_
*487 _345_
*488 _346_
*489 _347_
*490 _348_
*491 _349_
*492 _350_
*493 _351_
*494 _352_
*495 _353_
*496 _354_
*497 _355_
*498 _356_
*499 _357_
*500 _358_
*501 _359_
*502 _360_
*503 _361_
*504 _362_
*505 _363_
*506 _364_
*507 _365_
*508 _366_
*509 _367_
*510 _368_
*511 _369_
*512 _370_
*513 _371_
*514 _372_
*515 _373_
*516 _374_
*517 _375_
*518 _376_
*519 _377_
*520 _378_
*521 _379_
*522 _380_
*523 _381_
*524 _382_
*525 _383_
*526 _384_
*527 _385_
*528 _386_
*529 _387_
*530 _388_
*531 _389_
*532 _390_
*533 _391_
*534 _392_
*535 _393_
*536 _394_
*537 _395_
*538 _396_
*539 _397_
*540 _398_
*541 _399_
*542 _400_
*543 _401_
*544 _402_
*545 _403_
*546 _404_
*547 _405_
*548 _406_
*549 PHY_9
*550 PHY_10
*551 PHY_11
*552 PHY_12
*553 PHY_13
*554 PHY_14
*555 PHY_15
*556 PHY_16
*557 PHY_17
*558 PHY_18
*559 PHY_19
*560 PHY_20
*561 PHY_21
*562 PHY_22
*563 PHY_23
*564 PHY_24
*565 PHY_25
*566 PHY_26
*567 PHY_27
*568 PHY_28
*569 PHY_29
*570 PHY_30
*571 PHY_31
*572 PHY_32
*573 PHY_33
*574 PHY_34
*575 PHY_35
*576 PHY_36
*577 PHY_37
*578 PHY_38
*579 PHY_39
*580 PHY_40
*581 PHY_41
*582 PHY_42
*583 PHY_43
*584 PHY_44
*585 PHY_45
*586 PHY_46
*587 PHY_47
*588 PHY_48
*589 PHY_49
*590 PHY_50
*591 PHY_51
*592 PHY_52
*593 PHY_53
*594 PHY_54
*595 PHY_55
*596 PHY_56
*597 PHY_57
*598 PHY_58
*599 PHY_59
*600 PHY_60
*601 PHY_61
*602 PHY_62
*603 PHY_63
*604 PHY_64
*605 PHY_65
*606 PHY_66
*607 PHY_67
*608 PHY_68
*609 PHY_69
*610 PHY_70
*611 PHY_71
*612 PHY_72
*613 PHY_73
*614 PHY_74
*615 PHY_75
*616 PHY_76
*617 PHY_77
*618 PHY_78
*619 PHY_79
*620 PHY_80
*621 PHY_81
*622 PHY_82
*623 PHY_83
*624 PHY_84
*625 PHY_85
*626 PHY_86
*627 PHY_87
*628 PHY_88
*629 PHY_89
*630 PHY_90
*631 PHY_91
*632 PHY_92
*633 PHY_93
*634 PHY_94
*635 PHY_95
*636 PHY_96
*637 PHY_97
*638 PHY_98
*639 PHY_99
*640 PHY_100
*641 PHY_101
*642 PHY_102
*643 PHY_103
*644 PHY_104
*645 PHY_105
*646 PHY_106
*647 PHY_107
*648 PHY_108
*649 PHY_109
*650 PHY_110
*651 PHY_111
*652 PHY_112
*653 PHY_113
*654 PHY_114
*655 PHY_115
*656 PHY_116
*657 PHY_117
*658 PHY_118
*659 PHY_119
*660 PHY_120
*661 PHY_121
*662 PHY_122
*663 PHY_123
*664 PHY_124
*665 PHY_125
*666 PHY_126
*667 PHY_127
*668 input1
*669 input2
*670 input3
*671 output4
*672 output5
*673 output6
*674 output7
*675 output8
*676 output9
*677 output10
*678 output11
*679 output12
*680 output13
*681 output14
*682 output15
*683 output16
*684 output17
*685 output18
*686 output19
*687 output20
*688 output21
*689 output22
*690 output23
*691 output24
*692 output25
*693 output26
*694 output27
*695 output28
*696 output29
*697 output30
*698 output31
*699 output32
*700 output33
*701 output34
*702 output35
*703 _225__1
*704 _225__2
*705 _225__3
*706 _225__4
*707 _225__5
*708 _225__6
*709 _225__7
*710 _225__8
*711 _225__9
*712 _225__10
*713 _225__11
*714 _225__12
*715 _225__13
*716 _225__14
*717 _225__15
*718 _225__16
*719 _225__17
*720 _225__18
*721 _225__19
*722 _225__20
*723 _225__21
*724 _225__22
*725 _225__23
*726 _225__24
*727 _225__25
*728 _225__26
*729 _225__27
*730 _225__28
*731 _225__29
*732 _225__30
*733 _225__31
*734 _225__32
*735 _33
*736 _33_34
*737 _33_35
*738 _33_36
*739 _33_37
*740 clkbuf_2_0__f_clock
*741 clkbuf_2_1__f_clock
*742 clkbuf_2_2__f_clock
*743 clkbuf_2_3__f_clock
*744 rebuffer38
*745 rebuffer39
*746 rebuffer40
*747 FILLER_0_2
*748 FILLER_0_24
*749 FILLER_0_46
*750 FILLER_0_68
*751 FILLER_0_90
*752 FILLER_0_112
*753 FILLER_0_120
*754 FILLER_0_126
*755 FILLER_0_134
*756 FILLER_0_138
*757 FILLER_0_144
*758 FILLER_0_154
*759 FILLER_0_161
*760 FILLER_0_167
*761 FILLER_0_173
*762 FILLER_0_182
*763 FILLER_0_204
*764 FILLER_0_215
*765 FILLER_0_222
*766 FILLER_0_244
*767 FILLER_0_266
*768 FILLER_0_288
*769 FILLER_0_310
*770 FILLER_0_320
*771 FILLER_1_2
*772 FILLER_1_24
*773 FILLER_1_46
*774 FILLER_1_68
*775 FILLER_1_90
*776 FILLER_1_112
*777 FILLER_1_134
*778 FILLER_1_156
*779 FILLER_1_178
*780 FILLER_1_192
*781 FILLER_1_196
*782 FILLER_1_202
*783 FILLER_1_208
*784 FILLER_1_216
*785 FILLER_1_238
*786 FILLER_1_260
*787 FILLER_1_282
*788 FILLER_1_304
*789 FILLER_1_318
*790 FILLER_2_2
*791 FILLER_2_24
*792 FILLER_2_46
*793 FILLER_2_68
*794 FILLER_2_90
*795 FILLER_2_112
*796 FILLER_2_134
*797 FILLER_2_156
*798 FILLER_2_178
*799 FILLER_2_200
*800 FILLER_2_222
*801 FILLER_2_244
*802 FILLER_2_266
*803 FILLER_2_288
*804 FILLER_2_310
*805 FILLER_2_320
*806 FILLER_3_2
*807 FILLER_3_24
*808 FILLER_3_46
*809 FILLER_3_68
*810 FILLER_3_90
*811 FILLER_3_112
*812 FILLER_3_134
*813 FILLER_3_156
*814 FILLER_3_178
*815 FILLER_3_200
*816 FILLER_3_222
*817 FILLER_3_244
*818 FILLER_3_266
*819 FILLER_3_288
*820 FILLER_3_310
*821 FILLER_3_320
*822 FILLER_4_2
*823 FILLER_4_24
*824 FILLER_4_46
*825 FILLER_4_68
*826 FILLER_4_90
*827 FILLER_4_112
*828 FILLER_4_134
*829 FILLER_4_156
*830 FILLER_4_178
*831 FILLER_4_200
*832 FILLER_4_222
*833 FILLER_4_244
*834 FILLER_4_266
*835 FILLER_4_288
*836 FILLER_4_310
*837 FILLER_4_320
*838 FILLER_5_2
*839 FILLER_5_24
*840 FILLER_5_46
*841 FILLER_5_68
*842 FILLER_5_90
*843 FILLER_5_112
*844 FILLER_5_134
*845 FILLER_5_156
*846 FILLER_5_178
*847 FILLER_5_200
*848 FILLER_5_222
*849 FILLER_5_244
*850 FILLER_5_266
*851 FILLER_5_288
*852 FILLER_5_310
*853 FILLER_5_320
*854 FILLER_6_2
*855 FILLER_6_24
*856 FILLER_6_46
*857 FILLER_6_68
*858 FILLER_6_90
*859 FILLER_6_112
*860 FILLER_6_134
*861 FILLER_6_151
*862 FILLER_6_173
*863 FILLER_6_195
*864 FILLER_6_217
*865 FILLER_6_239
*866 FILLER_6_261
*867 FILLER_6_283
*868 FILLER_6_305
*869 FILLER_6_319
*870 FILLER_7_2
*871 FILLER_7_24
*872 FILLER_7_46
*873 FILLER_7_68
*874 FILLER_7_90
*875 FILLER_7_112
*876 FILLER_7_116
*877 FILLER_7_138
*878 FILLER_7_161
*879 FILLER_7_183
*880 FILLER_7_205
*881 FILLER_7_227
*882 FILLER_7_249
*883 FILLER_7_271
*884 FILLER_7_293
*885 FILLER_7_315
*886 FILLER_7_321
*887 FILLER_8_2
*888 FILLER_8_24
*889 FILLER_8_46
*890 FILLER_8_68
*891 FILLER_8_90
*892 FILLER_8_112
*893 FILLER_8_129
*894 FILLER_8_137
*895 FILLER_8_142
*896 FILLER_8_146
*897 FILLER_8_153
*898 FILLER_8_162
*899 FILLER_8_184
*900 FILLER_8_194
*901 FILLER_8_200
*902 FILLER_8_222
*903 FILLER_8_244
*904 FILLER_8_266
*905 FILLER_8_288
*906 FILLER_8_310
*907 FILLER_8_320
*908 FILLER_9_2
*909 FILLER_9_24
*910 FILLER_9_46
*911 FILLER_9_68
*912 FILLER_9_90
*913 FILLER_9_112
*914 FILLER_9_134
*915 FILLER_9_156
*916 FILLER_9_178
*917 FILLER_9_200
*918 FILLER_9_210
*919 FILLER_9_215
*920 FILLER_9_237
*921 FILLER_9_259
*922 FILLER_9_281
*923 FILLER_9_303
*924 FILLER_9_317
*925 FILLER_9_321
*926 FILLER_10_2
*927 FILLER_10_24
*928 FILLER_10_46
*929 FILLER_10_68
*930 FILLER_10_90
*931 FILLER_10_112
*932 FILLER_10_122
*933 FILLER_10_126
*934 FILLER_10_148
*935 FILLER_10_158
*936 FILLER_10_164
*937 FILLER_10_178
*938 FILLER_10_201
*939 FILLER_10_224
*940 FILLER_10_246
*941 FILLER_10_268
*942 FILLER_10_290
*943 FILLER_10_312
*944 FILLER_11_2
*945 FILLER_11_24
*946 FILLER_11_46
*947 FILLER_11_68
*948 FILLER_11_90
*949 FILLER_11_104
*950 FILLER_11_127
*951 FILLER_11_135
*952 FILLER_11_149
*953 FILLER_11_174
*954 FILLER_11_180
*955 FILLER_11_185
*956 FILLER_11_195
*957 FILLER_11_203
*958 FILLER_11_208
*959 FILLER_11_230
*960 FILLER_11_252
*961 FILLER_11_274
*962 FILLER_11_296
*963 FILLER_11_318
*964 FILLER_12_2
*965 FILLER_12_24
*966 FILLER_12_46
*967 FILLER_12_68
*968 FILLER_12_90
*969 FILLER_12_104
*970 FILLER_12_111
*971 FILLER_12_133
*972 FILLER_12_158
*973 FILLER_12_180
*974 FILLER_12_202
*975 FILLER_12_226
*976 FILLER_12_248
*977 FILLER_12_270
*978 FILLER_12_292
*979 FILLER_12_314
*980 FILLER_12_320
*981 FILLER_13_2
*982 FILLER_13_24
*983 FILLER_13_46
*984 FILLER_13_68
*985 FILLER_13_90
*986 FILLER_13_112
*987 FILLER_13_134
*988 FILLER_13_162
*989 FILLER_13_172
*990 FILLER_13_177
*991 FILLER_13_191
*992 FILLER_13_195
*993 FILLER_13_202
*994 FILLER_13_214
*995 FILLER_13_219
*996 FILLER_13_224
*997 FILLER_13_230
*998 FILLER_13_252
*999 FILLER_13_274
*1000 FILLER_13_296
*1001 FILLER_13_318
*1002 FILLER_14_2
*1003 FILLER_14_24
*1004 FILLER_14_46
*1005 FILLER_14_68
*1006 FILLER_14_90
*1007 FILLER_14_112
*1008 FILLER_14_134
*1009 FILLER_14_140
*1010 FILLER_14_148
*1011 FILLER_14_156
*1012 FILLER_14_179
*1013 FILLER_14_188
*1014 FILLER_14_194
*1015 FILLER_14_208
*1016 FILLER_14_212
*1017 FILLER_14_234
*1018 FILLER_14_256
*1019 FILLER_14_278
*1020 FILLER_14_300
*1021 FILLER_15_2
*1022 FILLER_15_24
*1023 FILLER_15_46
*1024 FILLER_15_68
*1025 FILLER_15_90
*1026 FILLER_15_112
*1027 FILLER_15_134
*1028 FILLER_15_156
*1029 FILLER_15_163
*1030 FILLER_15_173
*1031 FILLER_15_198
*1032 FILLER_15_208
*1033 FILLER_15_216
*1034 FILLER_15_221
*1035 FILLER_15_243
*1036 FILLER_15_265
*1037 FILLER_15_287
*1038 FILLER_15_309
*1039 FILLER_15_319
*1040 FILLER_16_2
*1041 FILLER_16_24
*1042 FILLER_16_46
*1043 FILLER_16_68
*1044 FILLER_16_90
*1045 FILLER_16_112
*1046 FILLER_16_134
*1047 FILLER_16_156
*1048 FILLER_16_166
*1049 FILLER_16_175
*1050 FILLER_16_182
*1051 FILLER_16_192
*1052 FILLER_16_202
*1053 FILLER_16_209
*1054 FILLER_16_231
*1055 FILLER_16_253
*1056 FILLER_16_275
*1057 FILLER_16_297
*1058 FILLER_16_319
*1059 FILLER_17_2
*1060 FILLER_17_24
*1061 FILLER_17_46
*1062 FILLER_17_68
*1063 FILLER_17_90
*1064 FILLER_17_112
*1065 FILLER_17_134
*1066 FILLER_17_156
*1067 FILLER_17_168
*1068 FILLER_17_182
*1069 FILLER_17_200
*1070 FILLER_17_222
*1071 FILLER_17_244
*1072 FILLER_17_266
*1073 FILLER_17_288
*1074 FILLER_17_310
*1075 FILLER_17_320
*1076 FILLER_18_2
*1077 FILLER_18_24
*1078 FILLER_18_46
*1079 FILLER_18_68
*1080 FILLER_18_90
*1081 FILLER_18_112
*1082 FILLER_18_134
*1083 FILLER_18_148
*1084 FILLER_18_167
*1085 FILLER_18_183
*1086 FILLER_18_189
*1087 FILLER_18_206
*1088 FILLER_18_220
*1089 FILLER_18_229
*1090 FILLER_18_251
*1091 FILLER_18_273
*1092 FILLER_18_295
*1093 FILLER_18_317
*1094 FILLER_18_321
*1095 FILLER_19_2
*1096 FILLER_19_24
*1097 FILLER_19_46
*1098 FILLER_19_68
*1099 FILLER_19_90
*1100 FILLER_19_112
*1101 FILLER_19_134
*1102 FILLER_19_156
*1103 FILLER_19_174
*1104 FILLER_19_203
*1105 FILLER_19_225
*1106 FILLER_19_247
*1107 FILLER_19_269
*1108 FILLER_19_291
*1109 FILLER_19_313
*1110 FILLER_19_319
*1111 FILLER_20_2
*1112 FILLER_20_24
*1113 FILLER_20_46
*1114 FILLER_20_68
*1115 FILLER_20_90
*1116 FILLER_20_112
*1117 FILLER_20_134
*1118 FILLER_20_156
*1119 FILLER_20_170
*1120 FILLER_20_188
*1121 FILLER_20_196
*1122 FILLER_20_206
*1123 FILLER_20_214
*1124 FILLER_20_236
*1125 FILLER_20_258
*1126 FILLER_20_280
*1127 FILLER_20_302
*1128 FILLER_20_316
*1129 FILLER_21_2
*1130 FILLER_21_24
*1131 FILLER_21_46
*1132 FILLER_21_68
*1133 FILLER_21_90
*1134 FILLER_21_112
*1135 FILLER_21_134
*1136 FILLER_21_156
*1137 FILLER_21_175
*1138 FILLER_21_189
*1139 FILLER_21_193
*1140 FILLER_21_209
*1141 FILLER_21_231
*1142 FILLER_21_253
*1143 FILLER_21_267
*1144 FILLER_21_271
*1145 FILLER_21_293
*1146 FILLER_21_315
*1147 FILLER_21_321
*1148 FILLER_22_2
*1149 FILLER_22_8
*1150 FILLER_22_16
*1151 FILLER_22_22
*1152 FILLER_22_28
*1153 FILLER_22_50
*1154 FILLER_22_72
*1155 FILLER_22_94
*1156 FILLER_22_100
*1157 FILLER_22_125
*1158 FILLER_22_147
*1159 FILLER_22_165
*1160 FILLER_22_173
*1161 FILLER_22_187
*1162 FILLER_22_191
*1163 FILLER_22_198
*1164 FILLER_22_220
*1165 FILLER_22_242
*1166 FILLER_22_264
*1167 FILLER_22_270
*1168 FILLER_22_278
*1169 FILLER_22_283
*1170 FILLER_22_292
*1171 FILLER_22_314
*1172 FILLER_22_320
*1173 FILLER_23_2
*1174 FILLER_23_9
*1175 FILLER_23_24
*1176 FILLER_23_46
*1177 FILLER_23_68
*1178 FILLER_23_90
*1179 FILLER_23_104
*1180 FILLER_23_111
*1181 FILLER_23_121
*1182 FILLER_23_126
*1183 FILLER_23_148
*1184 FILLER_23_162
*1185 FILLER_23_183
*1186 FILLER_23_195
*1187 FILLER_23_217
*1188 FILLER_23_239
*1189 FILLER_23_245
*1190 FILLER_23_254
*1191 FILLER_23_276
*1192 FILLER_23_290
*1193 FILLER_23_296
*1194 FILLER_23_318
*1195 FILLER_24_2
*1196 FILLER_24_24
*1197 FILLER_24_46
*1198 FILLER_24_68
*1199 FILLER_24_90
*1200 FILLER_24_112
*1201 FILLER_24_134
*1202 FILLER_24_150
*1203 FILLER_24_160
*1204 FILLER_24_168
*1205 FILLER_24_176
*1206 FILLER_24_182
*1207 FILLER_24_190
*1208 FILLER_24_204
*1209 FILLER_24_213
*1210 FILLER_24_227
*1211 FILLER_24_243
*1212 FILLER_24_265
*1213 FILLER_24_287
*1214 FILLER_24_309
*1215 FILLER_24_319
*1216 FILLER_25_2
*1217 FILLER_25_24
*1218 FILLER_25_46
*1219 FILLER_25_68
*1220 FILLER_25_90
*1221 FILLER_25_112
*1222 FILLER_25_134
*1223 FILLER_25_159
*1224 FILLER_25_167
*1225 FILLER_25_171
*1226 FILLER_25_178
*1227 FILLER_25_186
*1228 FILLER_25_208
*1229 FILLER_25_230
*1230 FILLER_25_252
*1231 FILLER_25_274
*1232 FILLER_25_296
*1233 FILLER_25_318
*1234 FILLER_26_2
*1235 FILLER_26_24
*1236 FILLER_26_46
*1237 FILLER_26_68
*1238 FILLER_26_90
*1239 FILLER_26_112
*1240 FILLER_26_134
*1241 FILLER_26_156
*1242 FILLER_26_162
*1243 FILLER_26_170
*1244 FILLER_26_192
*1245 FILLER_26_214
*1246 FILLER_26_236
*1247 FILLER_26_258
*1248 FILLER_26_268
*1249 FILLER_26_277
*1250 FILLER_26_290
*1251 FILLER_26_300
*1252 FILLER_26_306
*1253 FILLER_26_320
*1254 FILLER_27_2
*1255 FILLER_27_24
*1256 FILLER_27_46
*1257 FILLER_27_68
*1258 FILLER_27_90
*1259 FILLER_27_112
*1260 FILLER_27_126
*1261 FILLER_27_142
*1262 FILLER_27_156
*1263 FILLER_27_166
*1264 FILLER_27_174
*1265 FILLER_27_196
*1266 FILLER_27_210
*1267 FILLER_27_220
*1268 FILLER_27_237
*1269 FILLER_27_243
*1270 FILLER_27_252
*1271 FILLER_27_266
*1272 FILLER_27_290
*1273 FILLER_27_312
*1274 FILLER_28_2
*1275 FILLER_28_24
*1276 FILLER_28_46
*1277 FILLER_28_68
*1278 FILLER_28_90
*1279 FILLER_28_112
*1280 FILLER_28_134
*1281 FILLER_28_140
*1282 FILLER_28_147
*1283 FILLER_28_153
*1284 FILLER_28_168
*1285 FILLER_28_177
*1286 FILLER_28_188
*1287 FILLER_28_202
*1288 FILLER_28_214
*1289 FILLER_28_223
*1290 FILLER_28_227
*1291 FILLER_28_243
*1292 FILLER_28_249
*1293 FILLER_28_256
*1294 FILLER_28_272
*1295 FILLER_28_277
*1296 FILLER_28_286
*1297 FILLER_28_294
*1298 FILLER_28_304
*1299 FILLER_28_311
*1300 FILLER_28_318
*1301 FILLER_29_2
*1302 FILLER_29_24
*1303 FILLER_29_31
*1304 FILLER_29_53
*1305 FILLER_29_75
*1306 FILLER_29_97
*1307 FILLER_29_119
*1308 FILLER_29_129
*1309 FILLER_29_133
*1310 FILLER_29_137
*1311 FILLER_29_179
*1312 FILLER_29_187
*1313 FILLER_29_209
*1314 FILLER_29_223
*1315 FILLER_29_242
*1316 FILLER_29_250
*1317 FILLER_29_264
*1318 FILLER_29_287
*1319 FILLER_29_310
*1320 FILLER_29_315
*1321 FILLER_29_321
*1322 FILLER_30_2
*1323 FILLER_30_24
*1324 FILLER_30_46
*1325 FILLER_30_68
*1326 FILLER_30_90
*1327 FILLER_30_112
*1328 FILLER_30_116
*1329 FILLER_30_138
*1330 FILLER_30_152
*1331 FILLER_30_159
*1332 FILLER_30_167
*1333 FILLER_30_176
*1334 FILLER_30_184
*1335 FILLER_30_193
*1336 FILLER_30_198
*1337 FILLER_30_220
*1338 FILLER_30_242
*1339 FILLER_30_264
*1340 FILLER_30_271
*1341 FILLER_30_285
*1342 FILLER_30_294
*1343 FILLER_30_316
*1344 FILLER_31_2
*1345 FILLER_31_24
*1346 FILLER_31_46
*1347 FILLER_31_68
*1348 FILLER_31_90
*1349 FILLER_31_112
*1350 FILLER_31_118
*1351 FILLER_31_122
*1352 FILLER_31_144
*1353 FILLER_31_160
*1354 FILLER_31_166
*1355 FILLER_31_172
*1356 FILLER_31_189
*1357 FILLER_31_206
*1358 FILLER_31_222
*1359 FILLER_31_239
*1360 FILLER_31_249
*1361 FILLER_31_271
*1362 FILLER_31_293
*1363 FILLER_31_315
*1364 FILLER_31_321
*1365 FILLER_32_2
*1366 FILLER_32_24
*1367 FILLER_32_46
*1368 FILLER_32_68
*1369 FILLER_32_90
*1370 FILLER_32_112
*1371 FILLER_32_134
*1372 FILLER_32_144
*1373 FILLER_32_165
*1374 FILLER_32_176
*1375 FILLER_32_183
*1376 FILLER_32_195
*1377 FILLER_32_201
*1378 FILLER_32_207
*1379 FILLER_32_214
*1380 FILLER_32_222
*1381 FILLER_32_244
*1382 FILLER_32_253
*1383 FILLER_32_265
*1384 FILLER_32_288
*1385 FILLER_32_293
*1386 FILLER_32_299
*1387 FILLER_32_306
*1388 FILLER_32_313
*1389 FILLER_32_319
*1390 FILLER_33_2
*1391 FILLER_33_24
*1392 FILLER_33_46
*1393 FILLER_33_68
*1394 FILLER_33_90
*1395 FILLER_33_112
*1396 FILLER_33_122
*1397 FILLER_33_145
*1398 FILLER_33_150
*1399 FILLER_33_174
*1400 FILLER_33_183
*1401 FILLER_33_195
*1402 FILLER_33_215
*1403 FILLER_33_219
*1404 FILLER_33_235
*1405 FILLER_33_243
*1406 FILLER_33_267
*1407 FILLER_33_272
*1408 FILLER_33_282
*1409 FILLER_33_304
*1410 FILLER_33_318
*1411 FILLER_34_2
*1412 FILLER_34_12
*1413 FILLER_34_20
*1414 FILLER_34_42
*1415 FILLER_34_64
*1416 FILLER_34_86
*1417 FILLER_34_100
*1418 FILLER_34_106
*1419 FILLER_34_113
*1420 FILLER_34_118
*1421 FILLER_34_124
*1422 FILLER_34_128
*1423 FILLER_34_136
*1424 FILLER_34_140
*1425 FILLER_34_144
*1426 FILLER_34_152
*1427 FILLER_34_160
*1428 FILLER_34_168
*1429 FILLER_34_176
*1430 FILLER_34_184
*1431 FILLER_34_189
*1432 FILLER_34_195
*1433 FILLER_34_204
*1434 FILLER_34_212
*1435 FILLER_34_221
*1436 FILLER_34_238
*1437 FILLER_34_251
*1438 FILLER_34_265
*1439 FILLER_34_272
*1440 FILLER_34_297
*1441 FILLER_34_302
*1442 FILLER_34_316
*1443 FILLER_35_2
*1444 FILLER_35_12
*1445 FILLER_35_18
*1446 FILLER_35_40
*1447 FILLER_35_62
*1448 FILLER_35_84
*1449 FILLER_35_98
*1450 FILLER_35_122
*1451 FILLER_35_144
*1452 FILLER_35_158
*1453 FILLER_35_174
*1454 FILLER_35_186
*1455 FILLER_35_208
*1456 FILLER_35_222
*1457 FILLER_35_239
*1458 FILLER_35_255
*1459 FILLER_35_269
*1460 FILLER_35_275
*1461 FILLER_35_298
*1462 FILLER_35_303
*1463 FILLER_35_310
*1464 FILLER_35_320
*1465 FILLER_36_2
*1466 FILLER_36_24
*1467 FILLER_36_46
*1468 FILLER_36_68
*1469 FILLER_36_90
*1470 FILLER_36_100
*1471 FILLER_36_106
*1472 FILLER_36_128
*1473 FILLER_36_150
*1474 FILLER_36_156
*1475 FILLER_36_168
*1476 FILLER_36_178
*1477 FILLER_36_190
*1478 FILLER_36_212
*1479 FILLER_36_216
*1480 FILLER_36_232
*1481 FILLER_36_246
*1482 FILLER_36_253
*1483 FILLER_36_263
*1484 FILLER_36_272
*1485 FILLER_36_295
*1486 FILLER_36_300
*1487 FILLER_36_306
*1488 FILLER_36_313
*1489 FILLER_36_319
*1490 FILLER_37_2
*1491 FILLER_37_24
*1492 FILLER_37_46
*1493 FILLER_37_68
*1494 FILLER_37_90
*1495 FILLER_37_112
*1496 FILLER_37_134
*1497 FILLER_37_156
*1498 FILLER_37_178
*1499 FILLER_37_200
*1500 FILLER_37_222
*1501 FILLER_37_244
*1502 FILLER_37_253
*1503 FILLER_37_275
*1504 FILLER_37_283
*1505 FILLER_37_288
*1506 FILLER_37_295
*1507 FILLER_37_317
*1508 FILLER_37_321
*1509 FILLER_38_2
*1510 FILLER_38_24
*1511 FILLER_38_46
*1512 FILLER_38_68
*1513 FILLER_38_90
*1514 FILLER_38_112
*1515 FILLER_38_134
*1516 FILLER_38_152
*1517 FILLER_38_166
*1518 FILLER_38_177
*1519 FILLER_38_199
*1520 FILLER_38_213
*1521 FILLER_38_255
*1522 FILLER_38_269
*1523 FILLER_38_278
*1524 FILLER_38_305
*1525 FILLER_38_319
*1526 FILLER_39_2
*1527 FILLER_39_24
*1528 FILLER_39_46
*1529 FILLER_39_68
*1530 FILLER_39_90
*1531 FILLER_39_112
*1532 FILLER_39_134
*1533 FILLER_39_144
*1534 FILLER_39_153
*1535 FILLER_39_163
*1536 FILLER_39_170
*1537 FILLER_39_192
*1538 FILLER_39_214
*1539 FILLER_39_236
*1540 FILLER_39_258
*1541 FILLER_39_293
*1542 FILLER_39_298
*1543 FILLER_39_320
*1544 FILLER_40_2
*1545 FILLER_40_24
*1546 FILLER_40_46
*1547 FILLER_40_68
*1548 FILLER_40_90
*1549 FILLER_40_112
*1550 FILLER_40_134
*1551 FILLER_40_144
*1552 FILLER_40_166
*1553 FILLER_40_188
*1554 FILLER_40_210
*1555 FILLER_40_232
*1556 FILLER_40_254
*1557 FILLER_40_268
*1558 FILLER_40_277
*1559 FILLER_40_299
*1560 FILLER_40_321
*1561 FILLER_41_2
*1562 FILLER_41_24
*1563 FILLER_41_46
*1564 FILLER_41_68
*1565 FILLER_41_90
*1566 FILLER_41_112
*1567 FILLER_41_134
*1568 FILLER_41_151
*1569 FILLER_41_173
*1570 FILLER_41_195
*1571 FILLER_41_217
*1572 FILLER_41_239
*1573 FILLER_41_261
*1574 FILLER_41_283
*1575 FILLER_41_297
*1576 FILLER_41_306
*1577 FILLER_41_320
*1578 FILLER_42_2
*1579 FILLER_42_24
*1580 FILLER_42_46
*1581 FILLER_42_68
*1582 FILLER_42_90
*1583 FILLER_42_112
*1584 FILLER_42_134
*1585 FILLER_42_154
*1586 FILLER_42_176
*1587 FILLER_42_198
*1588 FILLER_42_220
*1589 FILLER_42_242
*1590 FILLER_42_264
*1591 FILLER_42_286
*1592 FILLER_42_308
*1593 FILLER_43_2
*1594 FILLER_43_24
*1595 FILLER_43_46
*1596 FILLER_43_68
*1597 FILLER_43_90
*1598 FILLER_43_112
*1599 FILLER_43_134
*1600 FILLER_43_155
*1601 FILLER_43_163
*1602 FILLER_43_171
*1603 FILLER_43_177
*1604 FILLER_43_186
*1605 FILLER_43_208
*1606 FILLER_43_230
*1607 FILLER_43_252
*1608 FILLER_43_274
*1609 FILLER_43_296
*1610 FILLER_43_318
*1611 FILLER_44_2
*1612 FILLER_44_24
*1613 FILLER_44_46
*1614 FILLER_44_68
*1615 FILLER_44_90
*1616 FILLER_44_112
*1617 FILLER_44_134
*1618 FILLER_44_140
*1619 FILLER_44_147
*1620 FILLER_44_164
*1621 FILLER_44_172
*1622 FILLER_44_178
*1623 FILLER_44_182
*1624 FILLER_44_196
*1625 FILLER_44_202
*1626 FILLER_44_210
*1627 FILLER_44_232
*1628 FILLER_44_254
*1629 FILLER_44_276
*1630 FILLER_44_298
*1631 FILLER_44_320
*1632 FILLER_45_2
*1633 FILLER_45_24
*1634 FILLER_45_46
*1635 FILLER_45_68
*1636 FILLER_45_90
*1637 FILLER_45_112
*1638 FILLER_45_134
*1639 FILLER_45_142
*1640 FILLER_45_152
*1641 FILLER_45_160
*1642 FILLER_45_168
*1643 FILLER_45_174
*1644 FILLER_45_182
*1645 FILLER_45_199
*1646 FILLER_45_221
*1647 FILLER_45_243
*1648 FILLER_45_265
*1649 FILLER_45_287
*1650 FILLER_45_309
*1651 FILLER_45_319
*1652 FILLER_46_2
*1653 FILLER_46_24
*1654 FILLER_46_46
*1655 FILLER_46_68
*1656 FILLER_46_90
*1657 FILLER_46_112
*1658 FILLER_46_126
*1659 FILLER_46_147
*1660 FILLER_46_166
*1661 FILLER_46_172
*1662 FILLER_46_188
*1663 FILLER_46_210
*1664 FILLER_46_232
*1665 FILLER_46_254
*1666 FILLER_46_276
*1667 FILLER_46_298
*1668 FILLER_46_320
*1669 FILLER_47_2
*1670 FILLER_47_24
*1671 FILLER_47_46
*1672 FILLER_47_68
*1673 FILLER_47_90
*1674 FILLER_47_112
*1675 FILLER_47_126
*1676 FILLER_47_132
*1677 FILLER_47_161
*1678 FILLER_47_167
*1679 FILLER_47_184
*1680 FILLER_47_206
*1681 FILLER_47_228
*1682 FILLER_47_250
*1683 FILLER_47_272
*1684 FILLER_47_294
*1685 FILLER_47_316
*1686 FILLER_48_2
*1687 FILLER_48_24
*1688 FILLER_48_46
*1689 FILLER_48_68
*1690 FILLER_48_90
*1691 FILLER_48_112
*1692 FILLER_48_134
*1693 FILLER_48_159
*1694 FILLER_48_167
*1695 FILLER_48_184
*1696 FILLER_48_206
*1697 FILLER_48_228
*1698 FILLER_48_250
*1699 FILLER_48_272
*1700 FILLER_48_294
*1701 FILLER_48_316
*1702 FILLER_49_2
*1703 FILLER_49_24
*1704 FILLER_49_46
*1705 FILLER_49_68
*1706 FILLER_49_90
*1707 FILLER_49_112
*1708 FILLER_49_134
*1709 FILLER_49_154
*1710 FILLER_49_176
*1711 FILLER_49_198
*1712 FILLER_49_220
*1713 FILLER_49_242
*1714 FILLER_49_264
*1715 FILLER_49_286
*1716 FILLER_49_308
*1717 FILLER_50_2
*1718 FILLER_50_24
*1719 FILLER_50_46
*1720 FILLER_50_68
*1721 FILLER_50_90
*1722 FILLER_50_112
*1723 FILLER_50_134
*1724 FILLER_50_156
*1725 FILLER_50_163
*1726 FILLER_50_185
*1727 FILLER_50_192
*1728 FILLER_50_204
*1729 FILLER_50_226
*1730 FILLER_50_248
*1731 FILLER_50_270
*1732 FILLER_50_292
*1733 FILLER_50_314
*1734 FILLER_50_320
*1735 FILLER_51_2
*1736 FILLER_51_24
*1737 FILLER_51_46
*1738 FILLER_51_68
*1739 FILLER_51_90
*1740 FILLER_51_112
*1741 FILLER_51_134
*1742 FILLER_51_156
*1743 FILLER_51_166
*1744 FILLER_51_188
*1745 FILLER_51_210
*1746 FILLER_51_232
*1747 FILLER_51_254
*1748 FILLER_51_276
*1749 FILLER_51_298
*1750 FILLER_51_320
*1751 FILLER_52_2
*1752 FILLER_52_24
*1753 FILLER_52_46
*1754 FILLER_52_68
*1755 FILLER_52_90
*1756 FILLER_52_112
*1757 FILLER_52_134
*1758 FILLER_52_156
*1759 FILLER_52_164
*1760 FILLER_52_186
*1761 FILLER_52_208
*1762 FILLER_52_230
*1763 FILLER_52_252
*1764 FILLER_52_274
*1765 FILLER_52_296
*1766 FILLER_52_318
*1767 FILLER_53_2
*1768 FILLER_53_24
*1769 FILLER_53_46
*1770 FILLER_53_68
*1771 FILLER_53_90
*1772 FILLER_53_112
*1773 FILLER_53_134
*1774 FILLER_53_156
*1775 FILLER_53_179
*1776 FILLER_53_189
*1777 FILLER_53_211
*1778 FILLER_53_233
*1779 FILLER_53_255
*1780 FILLER_53_277
*1781 FILLER_53_299
*1782 FILLER_53_321
*1783 FILLER_54_2
*1784 FILLER_54_24
*1785 FILLER_54_46
*1786 FILLER_54_68
*1787 FILLER_54_90
*1788 FILLER_54_112
*1789 FILLER_54_134
*1790 FILLER_54_140
*1791 FILLER_54_147
*1792 FILLER_54_152
*1793 FILLER_54_159
*1794 FILLER_54_167
*1795 FILLER_54_172
*1796 FILLER_54_178
*1797 FILLER_54_186
*1798 FILLER_54_208
*1799 FILLER_54_230
*1800 FILLER_54_252
*1801 FILLER_54_274
*1802 FILLER_54_296
*1803 FILLER_54_318
*1804 FILLER_55_2
*1805 FILLER_55_24
*1806 FILLER_55_46
*1807 FILLER_55_68
*1808 FILLER_55_90
*1809 FILLER_55_112
*1810 FILLER_55_134
*1811 FILLER_55_156
*1812 FILLER_55_178
*1813 FILLER_55_200
*1814 FILLER_55_222
*1815 FILLER_55_244
*1816 FILLER_55_266
*1817 FILLER_55_288
*1818 FILLER_55_310
*1819 FILLER_55_320
*1820 FILLER_56_2
*1821 FILLER_56_24
*1822 FILLER_56_46