*SPEF "ieee 1481-1999"
*DESIGN "ser"
*DATE "11:11:11 Fri 11 11, 1111"
*VENDOR "OpenRCX"
*PROGRAM "Parallel Extraction"
*VERSION "1.0"
*DESIGN_FLOW "NAME_SCOPE LOCAL" "PIN_CAP NONE"
*DIVIDER /
*DELIMITER :
*BUS_DELIMITER []
*T_UNIT 1 NS
*C_UNIT 1 PF
*R_UNIT 1 OHM
*L_UNIT 1 HENRY

*NAME_MAP
*1 _000_
*2 _001_
*3 _002_
*4 _003_
*5 _004_
*6 _005_
*7 _006_
*8 _007_
*9 _008_
*10 _009_
*11 _010_
*12 _011_
*13 _012_
*14 _013_
*15 _014_
*16 _015_
*17 _016_
*18 _017_
*19 _018_
*20 _019_
*21 _020_
*22 _021_
*23 _022_
*24 _023_
*25 _024_
*26 _025_
*27 _026_
*28 _027_
*29 _028_
*30 _029_
*31 _030_
*32 _031_
*33 _032_
*34 _033_
*35 _034_
*36 _035_
*37 _036_
*38 clknet_0_clock
*39 _038_
*40 _039_
*41 _040_
*42 _041_
*43 _042_
*44 _043_
*45 _044_
*46 _045_
*47 _046_
*48 _047_
*49 _048_
*50 _049_
*51 _050_
*52 _051_
*53 _052_
*54 _053_
*55 _054_
*56 _055_
*57 _056_
*58 _057_
*59 _058_
*60 _059_
*61 _060_
*62 _061_
*63 _062_
*64 _063_
*65 _064_
*66 _065_
*67 _066_
*68 _067_
*69 _068_
*70 _069_
*71 _070_
*72 _071_
*73 _072_
*74 _073_
*75 _074_
*76 _075_
*77 net10
*78 net9
*79 _078_
*80 net8
*81 net7
*82 net6
*83 _082_
*84 _083_
*85 _084_
*86 _085_
*87 _086_
*88 _087_
*89 _088_
*90 _089_
*91 _090_
*92 _091_
*93 _092_
*94 _093_
*95 _094_
*96 _095_
*97 _096_
*98 _097_
*99 _098_
*100 _099_
*101 _100_
*102 _101_
*103 _102_
*104 _103_
*105 _104_
*106 _105_
*107 _106_
*108 _107_
*109 _108_
*110 _109_
*111 _110_
*112 _111_
*113 _112_
*114 _113_
*115 _114_
*116 _115_
*117 _116_
*118 _117_
*119 _118_
*120 _119_
*121 _120_
*122 _121_
*123 _122_
*124 _123_
*125 _124_
*126 _125_
*127 _126_
*128 _127_
*129 _128_
*130 _129_
*131 _130_
*132 _131_
*133 _132_
*134 _133_
*135 _134_
*136 _135_
*137 _136_
*138 net5
*139 net4
*140 _139_
*141 net3
*142 _141_
*143 _142_
*144 _143_
*145 _144_
*146 _145_
*147 _146_
*148 _147_
*149 net2
*150 _149_
*151 _150_
*152 _151_
*153 net1
*154 _153_
*155 _154_
*156 _155_
*157 _156_
*158 _157_
*159 _158_
*160 _159_
*162 _161_
*163 _162_
*164 _163_
*166 _165_
*167 _166_
*168 _167_
*169 _168_
*170 _169_
*171 _170_
*172 _171_
*173 _172_
*174 _173_
*175 _174_
*176 _175_
*177 _176_
*178 _177_
*179 _178_
*180 _179_
*181 _180_
*182 _181_
*183 _182_
*184 clock
*185 din[0]
*186 din[10]
*187 din[11]
*188 din[12]
*189 din[13]
*190 din[14]
*191 din[15]
*192 din[16]
*193 din[17]
*194 din[18]
*195 din[19]
*196 din[1]
*197 din[20]
*198 din[21]
*199 din[22]
*200 din[23]
*201 din[24]
*202 din[25]
*203 din[26]
*204 din[27]
*205 din[28]
*206 din[29]
*207 din[2]
*208 din[30]
*209 din[31]
*210 din[3]
*211 din[4]
*212 din[5]
*213 din[6]
*214 din[7]
*215 din[8]
*216 din[9]
*217 dout
*218 enable
*219 load
*220 net11
*221 net12
*222 net13
*223 net14
*224 net15
*225 net16
*226 net17
*227 net18
*228 net19
*229 net20
*230 net21
*231 net22
*232 net23
*233 net24
*234 net25
*235 net26
*236 net27
*237 net28
*238 net29
*239 net30
*240 net31
*241 net32
*242 net33
*243 net34
*244 net35
*245 net36
*246 net37
*247 net38
*248 net39
*249 net40
*250 net41
*251 net42
*252 net43
*253 net44
*254 net45
*255 net46
*256 net47
*257 net48
*258 net49
*259 net50
*260 net51
*261 net52
*262 net53
*263 net54
*264 net55
*265 net56
*266 net57
*267 net58
*268 net59
*269 net60
*270 net61
*271 net62
*272 net63
*273 net64
*274 net65
*275 net66
*276 net67
*277 net68
*278 net69
*279 net70
*280 net71
*281 net72
*282 clknet_2_0__leaf_clock
*283 clknet_2_1__leaf_clock
*284 clknet_2_2__leaf_clock
*285 clknet_2_3__leaf_clock
*286 net73
*287 net74
*288 net75
*289 net76
*290 net77
*291 net78
*292 net79
*293 net80
*294 net81
*295 _183_
*296 PHY_11
*297 PHY_10
*298 _186_
*299 PHY_9
*300 PHY_8
*301 PHY_7
*302 _190_
*303 _191_
*304 _192_
*305 _193_
*306 _194_
*307 _195_
*308 _196_
*309 _197_
*310 _198_
*311 _199_
*312 _200_
*313 _201_
*314 _202_
*315 _203_
*316 _204_
*317 _205_
*318 _206_
*319 _207_
*320 _208_
*321 _209_
*322 _210_
*323 _211_
*324 _212_
*325 _213_
*326 _214_
*327 _215_
*328 _216_
*329 _217_
*330 _218_
*331 _219_
*332 _220_
*333 _221_
*334 _222_
*335 _223_
*336 _224_
*337 _225_
*338 _226_
*339 _227_
*340 _228_
*341 _229_
*342 _230_
*343 _231_
*344 _232_
*345 _233_
*346 _234_
*347 _235_
*348 _236_
*349 _237_
*350 _238_
*351 _239_
*352 _240_
*353 _241_
*354 _242_
*355 _243_
*356 _244_
*357 _245_
*358 clkbuf_0_clock
*359 PHY_6
*360 PHY_5
*361 _249_
*362 _250_
*363 PHY_4
*364 _252_
*365 _253_
*366 _254_
*367 _255_
*368 _256_
*369 _257_
*370 _258_
*371 _259_
*372 _260_
*373 _261_
*374 _262_
*375 _263_
*376 _264_
*377 _265_
*378 PHY_3
*379 _267_
*380 _268_
*381 _269_
*382 _270_
*383 _271_
*384 _272_
*385 PHY_2
*386 _274_
*387 _275_
*388 _276_
*389 _277_
*390 _278_
*391 _279_
*392 _280_
*393 _281_
*394 _282_
*395 _283_
*396 _284_
*397 _285_
*398 _286_
*399 _287_
*400 PHY_1
*401 _289_
*402 _290_
*403 _291_
*404 _292_
*405 _293_
*406 _294_
*407 PHY_0
*408 _296_
*409 _297_
*410 _298_
*411 _299_
*412 _300_
*413 _301_
*414 _302_
*415 _303_
*416 _304_
*417 _305_
*418 _306_
*419 _307_
*420 _308_
*421 _309_
*422 _310_
*423 _311_
*424 _312_
*425 _313_
*426 _314_
*427 _315_
*428 _316_
*429 _317_
*430 _318_
*431 _319_
*432 _320_
*433 _321_
*434 _322_
*435 _323_
*436 _324_
*437 _325_
*438 _326_
*439 _327_
*440 _328_
*441 _329_
*442 _330_
*443 _331_
*444 _332_
*445 _333_
*446 _334_
*447 _335_
*448 _336_
*449 _337_
*450 _338_
*451 _339_
*452 _340_
*453 _341_
*454 _342_
*455 _343_
*456 _344_
*457 _345_
*458 _346_
*459 _347_
*460 _348_
*461 _349_
*462 _350_
*463 _351_
*464 _352_
*465 _353_
*466 _354_
*467 _355_
*468 _356_
*469 _357_
*470 _358_
*471 _359_
*472 _360_
*473 _361_
*474 _362_
*475 _363_
*476 _364_
*477 _365_
*478 _366_
*479 PHY_12
*480 PHY_13
*481 PHY_14
*482 PHY_15
*483 PHY_16
*484 PHY_17
*485 PHY_18
*486 PHY_19
*487 PHY_20
*488 PHY_21
*489 PHY_22
*490 PHY_23
*491 PHY_24
*492 PHY_25
*493 PHY_26
*494 PHY_27
*495 PHY_28
*496 PHY_29
*497 PHY_30
*498 PHY_31
*499 PHY_32
*500 PHY_33
*501 PHY_34
*502 PHY_35
*503 PHY_36
*504 PHY_37
*505 PHY_38
*506 PHY_39
*507 PHY_40
*508 PHY_41
*509 PHY_42
*510 PHY_43
*511 PHY_44
*512 PHY_45
*513 PHY_46
*514 PHY_47
*515 PHY_48
*516 PHY_49
*517 PHY_50
*518 PHY_51
*519 PHY_52
*520 PHY_53
*521 PHY_54
*522 PHY_55
*523 PHY_56
*524 PHY_57
*525 PHY_58
*526 PHY_59
*527 PHY_60
*528 PHY_61
*529 PHY_62
*530 PHY_63
*531 PHY_64
*532 PHY_65
*533 PHY_66
*534 PHY_67
*535 PHY_68
*536 PHY_69
*537 PHY_70
*538 PHY_71
*539 PHY_72
*540 PHY_73
*541 PHY_74
*542 PHY_75
*543 PHY_76
*544 PHY_77
*545 PHY_78
*546 PHY_79
*547 PHY_80
*548 PHY_81
*549 PHY_82
*550 PHY_83
*551 PHY_84
*552 PHY_85
*553 PHY_86
*554 PHY_87
*555 PHY_88
*556 PHY_89
*557 PHY_90
*558 PHY_91
*559 PHY_92
*560 PHY_93
*561 PHY_94
*562 PHY_95
*563 PHY_96
*564 PHY_97
*565 PHY_98
*566 PHY_99
*567 PHY_100
*568 PHY_101
*569 PHY_102
*570 PHY_103
*571 PHY_104
*572 PHY_105
*573 PHY_106
*574 PHY_107
*575 PHY_108
*576 PHY_109
*577 PHY_110
*578 PHY_111
*579 input1
*580 input2
*581 input3
*582 input4
*583 input5
*584 input6
*585 input7
*586 input8
*587 input9
*588 input10
*589 input11
*590 input12
*591 input13
*592 input14
*593 input15
*594 input16
*595 input17
*596 input18
*597 input19
*598 input20
*599 input21
*600 input22
*601 input23
*602 input24
*603 input25
*604 input26
*605 input27
*606 input28
*607 input29
*608 input30
*609 input31
*610 input32
*611 input33
*612 input34
*613 output35
*614 _246__1
*615 _246__2
*616 _246__3
*617 _246__4
*618 _246__5
*619 _246__6
*620 _246__7
*621 _246__8
*622 _246__9
*623 _246__10
*624 _246__11
*625 _246__12
*626 _246__13
*627 _246__14
*628 _246__15
*629 _246__16
*630 _246__17
*631 _246__18
*632 _246__19
*633 _246__20
*634 _246__21
*635 _246__22
*636 _246__23
*637 _246__24
*638 _246__25
*639 _246__26
*640 _246__27
*641 _246__28
*642 _246__29
*643 _246__30
*644 _246__31
*645 _246__32
*646 _33
*647 _33_34
*648 _33_35
*649 _33_36
*650 _33_37
*651 clkbuf_2_0__f_clock
*652 clkbuf_2_1__f_clock
*653 clkbuf_2_2__f_clock
*654 clkbuf_2_3__f_clock
*655 split38
*656 rebuffer39
*657 rebuffer40
*658 rebuffer41
*659 rebuffer42
*660 split43
*661 rebuffer44
*662 rebuffer45
*663 rebuffer46
*664 FILLER_0_2
*665 FILLER_0_24
*666 FILLER_0_46
*667 FILLER_0_68
*668 FILLER_0_90
*669 FILLER_0_104
*670 FILLER_0_108
*671 FILLER_0_114
*672 FILLER_0_128
*673 FILLER_0_135
*674 FILLER_0_142
*675 FILLER_0_152
*676 FILLER_0_159
*677 FILLER_0_165
*678 FILLER_0_172
*679 FILLER_0_186
*680 FILLER_0_192
*681 FILLER_0_214
*682 FILLER_0_236
*683 FILLER_0_258
*684 FILLER_0_280
*685 FILLER_1_2
*686 FILLER_1_24
*687 FILLER_1_46
*688 FILLER_1_68
*689 FILLER_1_90
*690 FILLER_1_104
*691 FILLER_1_113
*692 FILLER_1_135
*693 FILLER_1_157
*694 FILLER_1_179
*695 FILLER_1_201
*696 FILLER_1_223
*697 FILLER_1_245
*698 FILLER_1_267
*699 FILLER_1_281
*700 FILLER_2_2
*701 FILLER_2_24
*702 FILLER_2_46
*703 FILLER_2_68
*704 FILLER_2_90
*705 FILLER_2_112
*706 FILLER_2_134
*707 FILLER_2_156
*708 FILLER_2_178
*709 FILLER_2_200
*710 FILLER_2_222
*711 FILLER_2_244
*712 FILLER_2_266
*713 FILLER_2_280
*714 FILLER_3_2
*715 FILLER_3_24
*716 FILLER_3_46
*717 FILLER_3_68
*718 FILLER_3_90
*719 FILLER_3_112
*720 FILLER_3_134
*721 FILLER_3_156
*722 FILLER_3_178
*723 FILLER_3_200
*724 FILLER_3_222
*725 FILLER_3_244
*726 FILLER_3_266
*727 FILLER_3_280
*728 FILLER_4_2
*729 FILLER_4_24
*730 FILLER_4_46
*731 FILLER_4_68
*732 FILLER_4_90
*733 FILLER_4_112
*734 FILLER_4_134
*735 FILLER_4_156
*736 FILLER_4_178
*737 FILLER_4_200
*738 FILLER_4_222
*739 FILLER_4_244
*740 FILLER_4_266
*741 FILLER_4_280
*742 FILLER_5_2
*743 FILLER_5_24
*744 FILLER_5_46
*745 FILLER_5_68
*746 FILLER_5_90
*747 FILLER_5_112
*748 FILLER_5_134
*749 FILLER_5_156
*750 FILLER_5_178
*751 FILLER_5_200
*752 FILLER_5_222
*753 FILLER_5_244
*754 FILLER_5_266
*755 FILLER_5_280
*756 FILLER_6_2
*757 FILLER_6_24
*758 FILLER_6_46
*759 FILLER_6_68
*760 FILLER_6_90
*761 FILLER_6_112
*762 FILLER_6_134
*763 FILLER_6_156
*764 FILLER_6_178
*765 FILLER_6_200
*766 FILLER_6_222
*767 FILLER_6_244
*768 FILLER_6_266
*769 FILLER_6_280
*770 FILLER_7_2
*771 FILLER_7_24
*772 FILLER_7_46
*773 FILLER_7_68
*774 FILLER_7_90
*775 FILLER_7_112
*776 FILLER_7_134
*777 FILLER_7_156
*778 FILLER_7_178
*779 FILLER_7_200
*780 FILLER_7_222
*781 FILLER_7_244
*782 FILLER_7_266
*783 FILLER_7_280
*784 FILLER_8_2
*785 FILLER_8_24
*786 FILLER_8_46
*787 FILLER_8_68
*788 FILLER_8_90
*789 FILLER_8_112
*790 FILLER_8_134
*791 FILLER_8_156
*792 FILLER_8_178
*793 FILLER_8_200
*794 FILLER_8_222
*795 FILLER_8_244
*796 FILLER_8_266
*797 FILLER_8_280
*798 FILLER_9_2
*799 FILLER_9_24
*800 FILLER_9_46
*801 FILLER_9_68
*802 FILLER_9_90
*803 FILLER_9_112
*804 FILLER_9_134
*805 FILLER_9_156
*806 FILLER_9_178
*807 FILLER_9_200
*808 FILLER_9_222
*809 FILLER_9_244
*810 FILLER_9_266
*811 FILLER_9_280
*812 FILLER_10_2
*813 FILLER_10_24
*814 FILLER_10_46
*815 FILLER_10_68
*816 FILLER_10_90
*817 FILLER_10_112
*818 FILLER_10_134
*819 FILLER_10_156
*820 FILLER_10_178
*821 FILLER_10_200
*822 FILLER_10_222
*823 FILLER_10_244
*824 FILLER_10_266
*825 FILLER_10_280
*826 FILLER_11_2
*827 FILLER_11_24
*828 FILLER_11_46
*829 FILLER_11_68
*830 FILLER_11_90
*831 FILLER_11_112
*832 FILLER_11_134
*833 FILLER_11_156
*834 FILLER_11_178
*835 FILLER_11_200
*836 FILLER_11_222
*837 FILLER_11_244
*838 FILLER_11_266
*839 FILLER_11_280
*840 FILLER_12_2
*841 FILLER_12_24
*842 FILLER_12_46
*843 FILLER_12_68
*844 FILLER_12_90
*845 FILLER_12_112
*846 FILLER_12_134
*847 FILLER_12_156
*848 FILLER_12_178
*849 FILLER_12_200
*850 FILLER_12_222
*851 FILLER_12_244
*852 FILLER_12_266
*853 FILLER_12_280
*854 FILLER_13_2
*855 FILLER_13_24
*856 FILLER_13_46
*857 FILLER_13_68
*858 FILLER_13_90
*859 FILLER_13_112
*860 FILLER_13_134
*861 FILLER_13_156
*862 FILLER_13_178
*863 FILLER_13_200
*864 FILLER_13_222
*865 FILLER_13_244
*866 FILLER_13_266
*867 FILLER_13_280
*868 FILLER_14_2
*869 FILLER_14_24
*870 FILLER_14_46
*871 FILLER_14_68
*872 FILLER_14_90
*873 FILLER_14_112
*874 FILLER_14_134
*875 FILLER_14_156
*876 FILLER_14_178
*877 FILLER_14_200
*878 FILLER_14_222
*879 FILLER_14_244
*880 FILLER_14_266
*881 FILLER_14_280
*882 FILLER_15_2
*883 FILLER_15_24
*884 FILLER_15_46
*885 FILLER_15_68
*886 FILLER_15_90
*887 FILLER_15_112
*888 FILLER_15_134
*889 FILLER_15_156
*890 FILLER_15_178
*891 FILLER_15_200
*892 FILLER_15_222
*893 FILLER_15_244
*894 FILLER_15_266
*895 FILLER_15_280
*896 FILLER_16_2
*897 FILLER_16_9
*898 FILLER_16_31
*899 FILLER_16_53
*900 FILLER_16_75
*901 FILLER_16_97
*902 FILLER_16_119
*903 FILLER_16_141
*904 FILLER_16_163
*905 FILLER_16_185
*906 FILLER_16_207
*907 FILLER_16_229
*908 FILLER_16_251
*909 FILLER_16_273
*910 FILLER_17_2
*911 FILLER_17_8
*912 FILLER_17_16
*913 FILLER_17_38
*914 FILLER_17_60
*915 FILLER_17_82
*916 FILLER_17_96
*917 FILLER_17_106
*918 FILLER_17_120
*919 FILLER_17_126
*920 FILLER_17_133
*921 FILLER_17_141
*922 FILLER_17_163
*923 FILLER_17_177
*924 FILLER_17_186
*925 FILLER_17_194
*926 FILLER_17_216
*927 FILLER_17_238
*928 FILLER_17_260
*929 FILLER_17_282
*930 FILLER_18_2
*931 FILLER_18_7
*932 FILLER_18_29
*933 FILLER_18_33
*934 FILLER_18_40
*935 FILLER_18_62
*936 FILLER_18_84
*937 FILLER_18_98
*938 FILLER_18_108
*939 FILLER_18_116
*940 FILLER_18_139
*941 FILLER_18_149
*942 FILLER_18_161
*943 FILLER_18_173
*944 FILLER_18_177
*945 FILLER_18_198
*946 FILLER_18_220
*947 FILLER_18_242
*948 FILLER_18_248
*949 FILLER_18_256
*950 FILLER_18_278
*951 FILLER_18_282
*952 FILLER_19_2
*953 FILLER_19_9
*954 FILLER_19_32
*955 FILLER_19_54
*956 FILLER_19_76
*957 FILLER_19_90
*958 FILLER_19_116
*959 FILLER_19_123
*960 FILLER_19_145
*961 FILLER_19_171
*962 FILLER_19_179
*963 FILLER_19_184
*964 FILLER_19_192
*965 FILLER_19_201
*966 FILLER_19_209
*967 FILLER_19_231
*968 FILLER_19_253
*969 FILLER_19_275
*970 FILLER_19_281
*971 FILLER_20_2
*972 FILLER_20_9
*973 FILLER_20_18
*974 FILLER_20_22
*975 FILLER_20_29
*976 FILLER_20_34
*977 FILLER_20_42
*978 FILLER_20_64
*979 FILLER_20_86
*980 FILLER_20_96
*981 FILLER_20_100
*982 FILLER_20_122
*983 FILLER_20_130
*984 FILLER_20_134
*985 FILLER_20_141
*986 FILLER_20_149
*987 FILLER_20_173
*988 FILLER_20_181
*989 FILLER_20_205
*990 FILLER_20_227
*991 FILLER_20_249
*992 FILLER_20_271
*993 FILLER_20_281
*994 FILLER_21_2
*995 FILLER_21_8
*996 FILLER_21_16
*997 FILLER_21_25
*998 FILLER_21_39
*999 FILLER_21_47
*1000 FILLER_21_69
*1001 FILLER_21_91
*1002 FILLER_21_101
*1003 FILLER_21_107
*1004 FILLER_21_119
*1005 FILLER_21_127
*1006 FILLER_21_139
*1007 FILLER_21_153
*1008 FILLER_21_158
*1009 FILLER_21_163
*1010 FILLER_21_169
*1011 FILLER_21_177
*1012 FILLER_21_183
*1013 FILLER_21_191
*1014 FILLER_21_201
*1015 FILLER_21_206
*1016 FILLER_21_228
*1017 FILLER_21_250
*1018 FILLER_21_272
*1019 FILLER_21_282
*1020 FILLER_22_2
*1021 FILLER_22_8
*1022 FILLER_22_29
*1023 FILLER_22_45
*1024 FILLER_22_53
*1025 FILLER_22_75
*1026 FILLER_22_97
*1027 FILLER_22_119
*1028 FILLER_22_125
*1029 FILLER_22_130
*1030 FILLER_22_152
*1031 FILLER_22_166
*1032 FILLER_22_175
*1033 FILLER_22_185
*1034 FILLER_22_207
*1035 FILLER_22_216
*1036 FILLER_22_238
*1037 FILLER_22_248
*1038 FILLER_22_256
*1039 FILLER_22_278
*1040 FILLER_22_282
*1041 FILLER_23_2
*1042 FILLER_23_8
*1043 FILLER_23_14
*1044 FILLER_23_20
*1045 FILLER_23_27
*1046 FILLER_23_53
*1047 FILLER_23_75
*1048 FILLER_23_79
*1049 FILLER_23_104
*1050 FILLER_23_126
*1051 FILLER_23_148
*1052 FILLER_23_170
*1053 FILLER_23_184
*1054 FILLER_23_188
*1055 FILLER_23_192
*1056 FILLER_23_206
*1057 FILLER_23_213
*1058 FILLER_23_235
*1059 FILLER_23_249
*1060 FILLER_23_256
*1061 FILLER_23_278
*1062 FILLER_23_282
*1063 FILLER_24_2
*1064 FILLER_24_9
*1065 FILLER_24_13
*1066 FILLER_24_34
*1067 FILLER_24_42
*1068 FILLER_24_50
*1069 FILLER_24_63
*1070 FILLER_24_85
*1071 FILLER_24_107
*1072 FILLER_24_121
*1073 FILLER_24_134
*1074 FILLER_24_138
*1075 FILLER_24_159
*1076 FILLER_24_181
*1077 FILLER_24_204
*1078 FILLER_24_212
*1079 FILLER_24_234
*1080 FILLER_24_256
*1081 FILLER_24_278
*1082 FILLER_24_282
*1083 FILLER_25_2
*1084 FILLER_25_12
*1085 FILLER_25_21
*1086 FILLER_25_26
*1087 FILLER_25_30
*1088 FILLER_25_37
*1089 FILLER_25_45
*1090 FILLER_25_67
*1091 FILLER_25_89
*1092 FILLER_25_111
*1093 FILLER_25_118
*1094 FILLER_25_140
*1095 FILLER_25_148
*1096 FILLER_25_153
*1097 FILLER_25_158
*1098 FILLER_25_180
*1099 FILLER_25_192
*1100 FILLER_25_200
*1101 FILLER_25_208
*1102 FILLER_25_213
*1103 FILLER_25_235
*1104 FILLER_25_257
*1105 FILLER_25_279
*1106 FILLER_26_2
*1107 FILLER_26_8
*1108 FILLER_26_30
*1109 FILLER_26_34
*1110 FILLER_26_38
*1111 FILLER_26_52
*1112 FILLER_26_62
*1113 FILLER_26_84
*1114 FILLER_26_98
*1115 FILLER_26_106
*1116 FILLER_26_114
*1117 FILLER_26_122
*1118 FILLER_26_130
*1119 FILLER_26_139
*1120 FILLER_26_153
*1121 FILLER_26_162
*1122 FILLER_26_170
*1123 FILLER_26_178
*1124 FILLER_26_200
*1125 FILLER_26_222
*1126 FILLER_26_244
*1127 FILLER_26_266
*1128 FILLER_26_280
*1129 FILLER_27_2
*1130 FILLER_27_9
*1131 FILLER_27_15
*1132 FILLER_27_23
*1133 FILLER_27_32
*1134 FILLER_27_38
*1135 FILLER_27_47
*1136 FILLER_27_69
*1137 FILLER_27_91
*1138 FILLER_27_95
*1139 FILLER_27_116
*1140 FILLER_27_121
*1141 FILLER_27_130
*1142 FILLER_27_138
*1143 FILLER_27_145
*1144 FILLER_27_152
*1145 FILLER_27_157
*1146 FILLER_27_167
*1147 FILLER_27_175
*1148 FILLER_27_197
*1149 FILLER_27_219
*1150 FILLER_27_241
*1151 FILLER_27_263
*1152 FILLER_27_277
*1153 FILLER_28_2
*1154 FILLER_28_8
*1155 FILLER_28_16
*1156 FILLER_28_24
*1157 FILLER_28_40
*1158 FILLER_28_46
*1159 FILLER_28_53
*1160 FILLER_28_64
*1161 FILLER_28_86
*1162 FILLER_28_96
*1163 FILLER_28_101
*1164 FILLER_28_117
*1165 FILLER_28_127
*1166 FILLER_28_131
*1167 FILLER_28_138
*1168 FILLER_28_144
*1169 FILLER_28_155
*1170 FILLER_28_166
*1171 FILLER_28_175
*1172 FILLER_28_189
*1173 FILLER_28_196
*1174 FILLER_28_206
*1175 FILLER_28_213
*1176 FILLER_28_235
*1177 FILLER_28_257
*1178 FILLER_28_279
*1179 FILLER_29_2
*1180 FILLER_29_28
*1181 FILLER_29_50
*1182 FILLER_29_61
*1183 FILLER_29_70
*1184 FILLER_29_92
*1185 FILLER_29_122
*1186 FILLER_29_130
*1187 FILLER_29_138
*1188 FILLER_29_146
*1189 FILLER_29_155
*1190 FILLER_29_159
*1191 FILLER_29_168
*1192 FILLER_29_176
*1193 FILLER_29_184
*1194 FILLER_29_207
*1195 FILLER_29_215
*1196 FILLER_29_237
*1197 FILLER_29_259
*1198 FILLER_29_269
*1199 FILLER_29_274
*1200 FILLER_29_281
*1201 FILLER_30_2
*1202 FILLER_30_9
*1203 FILLER_30_16
*1204 FILLER_30_21
*1205 FILLER_30_30
*1206 FILLER_30_38
*1207 FILLER_30_42
*1208 FILLER_30_49
*1209 FILLER_30_71
*1210 FILLER_30_93
*1211 FILLER_30_106
*1212 FILLER_30_115
*1213 FILLER_30_123
*1214 FILLER_30_130
*1215 FILLER_30_152
*1216 FILLER_30_158
*1217 FILLER_30_167
*1218 FILLER_30_176
*1219 FILLER_30_198
*1220 FILLER_30_204
*1221 FILLER_30_208
*1222 FILLER_30_230
*1223 FILLER_30_252
*1224 FILLER_30_258
*1225 FILLER_30_264
*1226 FILLER_30_272
*1227 FILLER_30_281
*1228 FILLER_31_2
*1229 FILLER_31_6
*1230 FILLER_31_27
*1231 FILLER_31_31
*1232 FILLER_31_35
*1233 FILLER_31_47
*1234 FILLER_31_69
*1235 FILLER_31_91
*1236 FILLER_31_105
*1237 FILLER_31_113
*1238 FILLER_31_120
*1239 FILLER_31_127
*1240 FILLER_31_132
*1241 FILLER_31_137
*1242 FILLER_31_151
*1243 FILLER_31_157
*1244 FILLER_31_171
*1245 FILLER_31_195
*1246 FILLER_31_203
*1247 FILLER_31_211
*1248 FILLER_31_233
*1249 FILLER_31_255
*1250 FILLER_31_277
*1251 FILLER_32_2
*1252 FILLER_32_14
*1253 FILLER_32_36
*1254 FILLER_32_44
*1255 FILLER_32_66
*1256 FILLER_32_88
*1257 FILLER_32_110
*1258 FILLER_32_116
*1259 FILLER_32_122
*1260 FILLER_32_144
*1261 FILLER_32_166
*1262 FILLER_32_188
*1263 FILLER_32_192
*1264 FILLER_32_196
*1265 FILLER_32_218
*1266 FILLER_32_240
*1267 FILLER_32_262
*1268 FILLER_32_276
*1269 FILLER_32_282
*1270 FILLER_33_2
*1271 FILLER_33_6
*1272 FILLER_33_12
*1273 FILLER_33_24
*1274 FILLER_33_33
*1275 FILLER_33_55
*1276 FILLER_33_77
*1277 FILLER_33_99
*1278 FILLER_33_121
*1279 FILLER_33_143
*1280 FILLER_33_165
*1281 FILLER_33_179
*1282 FILLER_33_185
*1283 FILLER_33_192
*1284 FILLER_33_212
*1285 FILLER_33_234
*1286 FILLER_33_256
*1287 FILLER_33_278
*1288 FILLER_33_282
*1289 FILLER_34_2
*1290 FILLER_34_8
*1291 FILLER_34_12
*1292 FILLER_34_16
*1293 FILLER_34_23
*1294 FILLER_34_28
*1295 FILLER_34_38
*1296 FILLER_34_46
*1297 FILLER_34_68
*1298 FILLER_34_90
*1299 FILLER_34_115
*1300 FILLER_34_123
*1301 FILLER_34_131
*1302 FILLER_34_145
*1303 FILLER_34_152
*1304 FILLER_34_166
*1305 FILLER_34_174
*1306 FILLER_34_184
*1307 FILLER_34_206
*1308 FILLER_34_214
*1309 FILLER_34_236
*1310 FILLER_34_258
*1311 FILLER_34_280
*1312 FILLER_35_2
*1313 FILLER_35_8
*1314 FILLER_35_16
*1315 FILLER_35_20
*1316 FILLER_35_27
*1317 FILLER_35_33
*1318 FILLER_35_41
*1319 FILLER_35_63
*1320 FILLER_35_85
*1321 FILLER_35_107
*1322 FILLER_35_130
*1323 FILLER_35_144
*1324 FILLER_35_151
*1325 FILLER_35_159
*1326 FILLER_35_169
*1327 FILLER_35_176
*1328 FILLER_35_184
*1329 FILLER_35_188
*1330 FILLER_35_195
*1331 FILLER_35_204
*1332 FILLER_35_212
*1333 FILLER_35_234
*1334 FILLER_35_248
*1335 FILLER_35_256
*1336 FILLER_35_278
*1337 FILLER_35_282
*1338 FILLER_36_2
*1339 FILLER_36_9
*1340 FILLER_36_31
*1341 FILLER_36_53
*1342 FILLER_36_75
*1343 FILLER_36_97
*1344 FILLER_36_103
*1345 FILLER_36_124
*1346 FILLER_36_133
*1347 FILLER_36_157
*1348 FILLER_36_181
*1349 FILLER_36_185
*1350 FILLER_36_206
*1351 FILLER_36_214
*1352 FILLER_36_236
*1353 FILLER_36_250
*1354 FILLER_36_256
*1355 FILLER_36_278
*1356 FILLER_36_282
*1357 FILLER_37_2
*1358 FILLER_37_7
*1359 FILLER_37_29
*1360 FILLER_37_33
*1361 FILLER_37_40
*1362 FILLER_37_62
*1363 FILLER_37_84
*1364 FILLER_37_98
*1365 FILLER_37_107
*1366 FILLER_37_115
*1367 FILLER_37_123
*1368 FILLER_37_129
*1369 FILLER_37_152
*1370 FILLER_37_178
*1371 FILLER_37_186
*1372 FILLER_37_191
*1373 FILLER_37_201
*1374 FILLER_37_207
*1375 FILLER_37_229
*1376 FILLER_37_251
*1377 FILLER_37_273
*1378 FILLER_38_2
*1379 FILLER_38_26
*1380 FILLER_38_48
*1381 FILLER_38_70
*1382 FILLER_38_92
*1383 FILLER_38_114
*1384 FILLER_38_130
*1385 FILLER_38_140
*1386 FILLER_38_148
*1387 FILLER_38_157
*1388 FILLER_38_162
*1389 FILLER_38_166
*1390 FILLER_38_173
*1391 FILLER_38_181
*1392 FILLER_38_203
*1393 FILLER_38_225
*1394 FILLER_38_247
*1395 FILLER_38_269
*1396 FILLER_39_2
*1397 FILLER_39_8
*1398 FILLER_39_16
*1399 FILLER_39_21
*1400 FILLER_39_43
*1401 FILLER_39_65
*1402 FILLER_39_87
*1403 FILLER_39_109
*1404 FILLER_39_131
*1405 FILLER_39_137
*1406 FILLER_39_159
*1407 FILLER_39_163
*1408 FILLER_39_185
*1409 FILLER_39_207
*1410 FILLER_39_229
*1411 FILLER_39_251
*1412 FILLER_39_273
*1413 FILLER_40_2
*1414 FILLER_40_9
*1415 FILLER_40_31
*1416 FILLER_40_53
*1417 FILLER_40_75
*1418 FILLER_40_97
*1419 FILLER_40_119
*1420 FILLER_40_141
*1421 FILLER_40_163
*1422 FILLER_40_185
*1423 FILLER_40_207
*1424 FILLER_40_229
*1425 FILLER_40_251
*1426 FILLER_40_273
*1427 FILLER_41_2
*1428 FILLER_41_24
*1429 FILLER_41_46
*1430 FILLER_41_68
*1431 FILLER_41_90
*1432 FILLER_41_112
*1433 FILLER_41_134
*1434 FILLER_41_156
*1435 FILLER_41_178
*1436 FILLER_41_200
*1437 FILLER_41_222
*1438 FILLER_41_244
*1439 FILLER_41_266
*1440 FILLER_41_280
*1441 FILLER_42_2
*1442 FILLER_42_24
*1443 FILLER_42_46
*1444 FILLER_42_68
*1445 FILLER_42_90
*1446 FILLER_42_112
*1447 FILLER_42_134
*1448 FILLER_42_156
*1449 FILLER_42_178
*1450 FILLER_42_200
*1451 FILLER_42_222
*1452 FILLER_42_244
*1453 FILLER_42_266
*1454 FILLER_42_280
*1455 FILLER_43_2
*1456 FILLER_43_24
*1457 FILLER_43_46
*1458 FILLER_43_68
*1459 FILLER_43_90
*1460 FILLER_43_112
*1461 FILLER_43_134
*1462 FILLER_43_156
*1463 FILLER_43_178
*1464 FILLER_43_200
*1465 FILLER_43_222
*1466 FILLER_43_244
*1467 FILLER_43_266
*1468 FILLER_43_280
*1469 FILLER_44_2
*1470 FILLER_44_24
*1471 FILLER_44_46
*1472 FILLER_44_68
*1473 FILLER_44_90
*1474 FILLER_44_112
*1475 FILLER_44_134
*1476 FILLER_44_156
*1477 FILLER_44_178
*1478 FILLER_44_200
*1479 FILLER_44_222
*1480 FILLER_44_244
*1481 FILLER_44_266
*1482 FILLER_44_280
*1483 FILLER_45_2
*1484 FILLER_45_24
*1485 FILLER_45_46
*1486 FILLER_45_68
*1487 FILLER_45_90
*1488 FILLER_45_112
*1489 FILLER_45_134
*1490 FILLER_45_156
*1491 FILLER_45_178
*1492 FILLER_45_200
*1493 FILLER_45_222
*1494 FILLER_45_244
*1495 FILLER_45_266
*1496 FILLER_45_280
*1497 FILLER_46_2
*1498 FILLER_46_24
*1499 FILLER_46_46
*1500 FILLER_46_68
*1501 FILLER_46_90
*1502 FILLER_46_112
*1503 FILLER_46_134
*1504 FILLER_46_156
*1505 FILLER_46_178
*1506 FILLER_46_200
*1507 FILLER_46_222
*1508 FILLER_46_244
*1509 FILLER_46_266
*1510 FILLER_46_280
*1511 FILLER_47_2
*1512 FILLER_47_24
*1513 FILLER_47_46
*1514 FILLER_47_68
*1515 FILLER_47_90
*1516 FILLER_47_112
*1517 FILLER_47_134
*1518 FILLER_47_156
*1519 FILLER_47_178
*1520 FILLER_47_200
*1521 FILLER_47_222
*1522 FILLER_47_244
*1523 FILLER_47_266
*1524 FILLER_47_280
*1525 FILLER_48_2
*1526 FILLER_48_24
*1527 FILLER_48_46
*1528 FILLER_48_68
*1529 FILLER_48_90
*1530 FILLER_48_112
*1531 FILLER_48_134
*1532 FILLER_48_156
*1533 FILLER_48_178
*1534 FILLER_48_200
*1535 FILLER_48_222
*1536 FILLER_48_244
*1537 FILLER_48_266
*1538 FILLER_48_280
*1539 FILLER_49_2
*1540 FILLER_49_24
*1541 FILLER_49_46
*1542 FILLER_49_68
*1543 FILLER_49_90
*1544 FILLER_49_112
*1545 FILLER_49_134
*1546 FILLER_49_156
*1547 FILLER_49_178
*1548 FILLER_49_200
*1549 FILLER_49_222
*1550 FILLER_49_244
*1551 FILLER_49_266
*1552 FILLER_49_280
*1553 FILLER_50_2
*1554 FILLER_50_24
*1555 FILLER_50_46
*1556 FILLER_50_68
*1557 FILLER_50_90
*1558 FILLER_50_112
*1559 FILLER_50_134
*1560 FILLER_50_156
*1561 FILLER_50_178
*1562 FILLER_50_200
*1563 FILLER_50_222
*1564 FILLER_50_244
*1565 FILLER_50_266
*1566 FILLER_50_280
*1567 FILLER_51_2
*1568 FILLER_51_24
*1569 FILLER_51_46
*1570 FILLER_51_68
*1571 FILLER_51_90
*1572 FILLER_51_112
*1573 FILLER_51_134
*1574 FILLER_51_156
*1575 FILLER_51_178
*1576 FILLER_51_200
*1577 FILLER_51_222
*1578 FILLER_51_244
*1579 FILLER_51_266
*1580 FILLER_51_280
*1581 FILLER_52_2
*1582 FILLER_52_24
*1583 FILLER_52_46
*1584 FILLER_52_68
*1585 FILLER_52_90
*1586 FILLER_52_112
*1587 FILLER_52_134
*1588 FILLER_52_156
*1589 FILLER_52_178
*1590 FILLER_52_200
*1591 FILLER_52_222
*1592 FILLER_52_244
*1593 FILLER_52_266
*1594 FILLER_52_280
*1595 FILLER_53_2
*1596 FILLER_53_24
*1597 FILLER_53_46
*1598 FILLER_53_68
*1599 FILLER_53_90
*1600 FILLER_53_112
*1601 FILLER_53_134
*1602 FILLER_53_156
*1603 FILLER_53_178
*1604 FILLER_53_200
*1605 FILLER_53_222
*1606 FILLER_53_244
*1607 FILLER_53_266
*1608 FILLER_53_280
*1609 FILLER_54_2
*1610 FILLER_54_24
*1611 FILLER_54_46
*1612 FILLER_54_68
*1613 FILLER_54_90
*1614 FILLER_54_117
*1615 FILLER_54_139
*1616 FILLER_54_161
*1617 FILLER_54_183
*1618 FILLER_54_205
*1619 FILLER_54_227
*1620 FILLER_54_249
*1621 FILLER_54_271
*1622 FILLER_54_281
*1623 FILLER_55_2
*1624 FILLER_55_24
*1625 FILLER_55_46
*1626 FILLER_55_68
*1627 FILLER_55_90
*1628 FILLER_55_112
*1629 FILLER_55_127
*1630 FILLER_55_133
*1631 FILLER_55_141
*1632 FILLER_55_149
*1633 FILLER_55_163
*1634 FILLER_55_172
*1635 FILLER_55_180
*1636 FILLER_55_202
*1637 FILLER_55_224
*1638 FILLER_55_246
*1639 FILLER_55_268
*1640 FILLER_55_282

*PORTS
clock I
din[0] I
din[10] I
din[11] I
din[12] I
din[13] I
din[14] I
din[15] I
din[16] I
din[17] I
din[18] I
din[19] I
din[1] I
din[20] I
din[21] I
din[22] I
din[23] I
din[24] I
din[25] I
din[26] I
din[27] I
din[28] I
din[29] I
din[2] I
din[30] I
din[31] I
din[3] I
din[4] I
din[5] I
din[6] I
din[7] I
din[8] I
din[9] I
dout O
enable I
load I

*D_NET *1 0.000603725
*CONN
*I *342:B I *D AND3x1_ASAP7_75t_SL
*I *334:B I *D AND3x1_ASAP7_75t_SL
*I *660:A I *D BUFx2_ASAP7_75t_SL
*I *354:B I *D AND3x1_ASAP7_75t_SL
*I *346:B I *D AND3x1_ASAP7_75t_SL
*I *305:A I *D INVx1_ASAP7_75t_SL
*I *434:C I *D OR3x1_ASAP7_75t_SL
*I *444:QN O *D DFFLQNx1_ASAP7_75t_SL
*CAP
1 *342:B 0
2 *334:B 0
3 *660:A 0
4 *354:B 0
5 *346:B 0
6 *305:A 0
7 *434:C 1.06168e-05
8 *444:QN 2.4873e-06
9 *1:92 1.82598e-06
10 *1:86 2.51852e-05
11 *1:71 4.13794e-05
12 *1:49 2.17669e-05
13 *1:34 3.00989e-05
14 *1:26 5.51113e-05
15 *1:22 2.33908e-05
16 *1:20 2.98376e-05
17 *1:16 4.77093e-05
18 *1:12 3.50238e-05
19 *1:6 2.8131e-05
20 *434:C *434:B 5.64022e-06
21 *434:C *79:109 0
22 *434:C *87:55 5.79724e-07
23 *1:6 *289:35 7.13384e-06
24 *1:12 *285:8 1.03816e-05
25 *1:12 *291:8 2.18135e-06
26 *1:16 *285:12 5.58869e-06
27 *1:20 *94:14 4.65695e-07
28 *1:20 *134:10 1.71312e-05
29 *1:20 *279:8 0
30 *1:20 *289:33 8.63253e-06
31 *1:22 *346:C 1.04475e-06
32 *1:22 *94:14 5.41446e-06
33 *1:22 *94:20 3.29017e-05
34 *1:22 *289:16 3.61574e-05
35 *1:26 *306:B 1.07377e-06
36 *1:26 *346:A 2.90209e-08
37 *1:26 *289:16 9.08513e-06
38 *1:34 *434:B 0
39 *1:34 *79:109 1.49407e-08
40 *1:34 *86:14 1.09714e-05
41 *1:34 *87:8 4.45472e-06
42 *1:34 *87:12 6.7842e-07
43 *1:49 *37:10 0
44 *1:49 *37:28 0
45 *1:49 *37:43 0
46 *1:49 *86:8 1.41206e-05
47 *1:49 *86:14 3.30856e-06
48 *1:71 *334:A 5.62196e-06
49 *1:71 *289:35 4.91313e-05
50 *1:86 *334:C 1.28905e-05
51 *1:86 *122:8 0
52 *1:92 *114:10 6.33206e-07
53 *1:92 *122:8 5.89431e-06
*RES
1 *444:QN *1:6 19.3393 
2 *1:6 *1:12 42.2843 
3 *1:12 *1:16 33.7796 
4 *1:16 *1:20 34.6581 
5 *1:20 *1:22 13.3706 
6 *1:22 *1:26 25.2224 
7 *1:26 *1:34 48.2808 
8 *1:34 *434:C 42.2276 
9 *1:26 *1:49 33.5318 
10 *1:49 *305:A 17.2 
11 *1:22 *346:B 17.2 
12 *1:20 *354:B 17.2 
13 *1:12 *660:A 17.2 
14 *1:6 *1:71 18.184 
15 *1:71 *334:B 17.2 
16 *1:71 *1:86 49.5345 
17 *1:86 *1:92 36.3711 
18 *1:92 *342:B 17.2 
*END

*D_NET *2 0.000304534
*CONN
*I *662:A I *D BUFx2_ASAP7_75t_SL
*I *655:A I *D BUFx3_ASAP7_75t_SL
*I *656:A I *D BUFx4f_ASAP7_75t_SL
*I *434:A I *D OR3x1_ASAP7_75t_SL
*I *442:QN O *D DFFLQNx1_ASAP7_75t_SL
*CAP
1 *662:A 3.80675e-06
2 *655:A 6.09994e-06
3 *656:A 3.76651e-06
4 *434:A 1.62217e-05
5 *442:QN 4.567e-06
6 *2:36 2.18642e-05
7 *2:20 2.83523e-05
8 *2:14 3.04852e-05
9 *2:10 3.97124e-05
10 *2:8 1.77338e-05
11 *434:A *278:8 3.3921e-06
12 *434:A *287:12 9.24834e-06
13 *655:A *286:8 5.01287e-06
14 *656:A *87:18 5.51397e-07
15 *662:A *432:B 5.68573e-06
16 *662:A *288:10 6.76305e-06
17 *2:10 *432:B 5.50984e-06
18 *2:10 *177:65 0
19 *2:10 *243:357 1.64413e-06
20 *2:10 *288:10 2.35211e-06
21 *2:10 *290:22 2.90376e-05
22 *2:14 *87:18 3.1923e-06
23 *2:20 *432:B 2.25787e-06
24 *2:20 *177:65 1.12901e-05
25 *2:20 *243:376 1.27479e-06
26 *2:20 *286:49 4.02281e-06
27 *2:36 *432:B 2.05106e-05
28 *2:36 *288:10 2.0179e-05
*RES
1 *442:QN *2:8 36.0045 
2 *2:8 *2:10 14.6423 
3 *2:10 *2:14 23.0831 
4 *2:14 *2:20 46.7897 
5 *2:20 *434:A 27.8965 
6 *2:14 *656:A 18.8045 
7 *2:10 *2:36 16.3318 
8 *2:36 *655:A 38.1438 