*SPEF "ieee 1481-1999"
*DESIGN "ser_top"
*DATE "11:11:11 Fri 11 11, 1111"
*VENDOR "OpenRCX"
*PROGRAM "Parallel Extraction"
*VERSION "1.0"
*DESIGN_FLOW "NAME_SCOPE LOCAL" "PIN_CAP NONE"
*DIVIDER /
*DELIMITER :
*BUS_DELIMITER []
*T_UNIT 1 NS
*C_UNIT 1 PF
*R_UNIT 1 OHM
*L_UNIT 1 HENRY

*NAME_MAP
*1 _000_
*2 _001_
*3 _002_
*4 _003_
*5 _004_
*6 _005_
*7 _006_
*8 _007_
*9 _008_
*10 _009_
*11 _010_
*12 _011_
*13 _012_
*14 _013_
*15 _014_
*16 _015_
*17 _016_
*18 _017_
*19 _018_
*20 _019_
*21 _020_
*22 _021_
*23 _022_
*24 _023_
*25 _024_
*26 _025_
*27 _026_
*28 _027_
*29 clknet_0_clk
*30 _029_
*31 _030_
*32 _031_
*33 _032_
*34 _033_
*35 _034_
*36 _035_
*37 _036_
*38 _037_
*39 _038_
*40 _039_
*41 _040_
*42 _041_
*43 _042_
*44 _043_
*45 _044_
*46 _045_
*47 _046_
*48 _047_
*49 _048_
*50 _049_
*51 _050_
*52 _051_
*53 _052_
*54 _053_
*55 _054_
*56 _055_
*57 _056_
*58 _057_
*59 _058_
*60 net3
*61 net2
*62 _061_
*63 net1
*65 _064_
*66 _065_
*67 _066_
*68 _067_
*69 _068_
*70 _069_
*71 _070_
*72 _071_
*74 _073_
*75 _074_
*76 _075_
*77 _076_
*78 _077_
*79 _078_
*80 _079_
*81 _080_
*82 _081_
*83 _082_
*84 _083_
*85 _084_
*86 _085_
*87 _086_
*88 _087_
*89 _088_
*90 _089_
*91 _090_
*92 _091_
*93 _092_
*94 _093_
*95 _094_
*96 _095_
*97 _096_
*98 _097_
*99 _098_
*100 _099_
*101 _100_
*102 _101_
*103 _102_
*104 _103_
*105 _104_
*106 _105_
*107 _106_
*108 _107_
*109 _108_
*110 _109_
*111 _110_
*112 _111_
*113 _112_
*114 _113_
*115 _114_
*116 _115_
*117 net8
*118 net7
*119 _118_
*120 net6
*121 _120_
*122 net5
*123 _122_
*124 _123_
*125 _124_
*126 _125_
*127 _126_
*128 net4
*129 _128_
*130 _129_
*131 _130_
*132 _131_
*133 clk
*134 data_en
*135 data_in_latch\.data_8b_out\[0\]
*136 data_in_latch\.data_8b_out\[1\]
*137 data_in_latch\.data_8b_out\[2\]
*138 data_in_latch\.data_8b_out\[3\]
*139 data_in_latch\.data_8b_out\[4\]
*140 data_in_latch\.data_8b_out\[5\]
*141 data_in_latch\.data_8b_out\[6\]
*142 data_in_latch\.data_8b_out\[7\]
*143 load_en
*144 parallel_data_in[0]
*145 parallel_data_in[1]
*146 parallel_data_in[2]
*147 parallel_data_in[3]
*148 parallel_data_in[4]
*149 parallel_data_in[5]
*150 parallel_data_in[6]
*151 parallel_data_in[7]
*152 rst_n
*153 ser_out
*154 net9
*155 net10
*156 net11
*157 net12
*158 net13
*159 net14
*160 net15
*161 net16
*162 net17
*163 net18
*164 net19
*165 net20
*166 net21
*167 net22
*168 net23
*169 net24
*170 net25
*171 net26
*172 net27
*173 net28
*174 net29
*175 net30
*176 net31
*177 clknet_1_0__leaf_clk
*178 clknet_1_1__leaf_clk
*179 PHY_9
*180 _133_
*181 _134_
*182 _135_
*183 _136_
*184 _137_
*185 _138_
*186 _139_
*187 _140_
*188 PHY_8
*189 _142_
*190 _143_
*191 clkbuf_0_clk
*192 _145_
*193 PHY_7
*194 _147_
*195 PHY_6
*196 _149_
*197 _150_
*198 _151_
*199 _152_
*200 _153_
*201 _154_
*202 PHY_5
*203 _156_
*204 _157_
*205 _158_
*206 _159_
*207 _160_
*208 _161_
*209 _162_
*210 _163_
*211 _164_
*212 _165_
*213 _166_
*214 _167_
*215 _168_
*216 _169_
*217 _170_
*218 _171_
*219 _172_
*220 _173_
*221 _174_
*222 _175_
*223 _176_
*224 _177_
*225 _178_
*226 PHY_4
*227 PHY_3
*228 _181_
*229 PHY_2
*230 PHY_1
*231 _184_
*232 _185_
*233 _186_
*234 _187_
*235 _188_
*236 _189_
*237 _190_
*238 _191_
*239 PHY_0
*240 _193_
*241 _194_
*242 _195_
*243 _196_
*244 _197_
*245 _198_
*246 _199_
*247 _200_
*248 _201_
*249 _202_
*250 _203_
*251 _204_
*252 _205_
*253 _206_
*254 _207_
*255 _208_
*256 _209_
*257 _210_
*258 _211_
*259 _212_
*260 _213_
*261 _214_
*262 _215_
*263 _216_
*264 _217_
*265 _218_
*266 _219_
*267 _220_
*268 _221_
*269 _222_
*270 _223_
*271 _224_
*272 _225_
*273 _226_
*274 _227_
*275 _228_
*276 _229_
*277 _230_
*278 _231_
*279 _232_
*280 _233_
*281 _234_
*282 _235_
*283 _236_
*284 _237_
*285 _238_
*286 _239_
*287 _240_
*288 _241_
*289 _242_
*290 _243_
*291 _244_
*292 _245_
*293 _246_
*294 _247_
*295 _248_
*296 _249_
*297 _250_
*298 _251_
*299 _252_
*300 _253_
*301 _254_
*302 _255_
*303 _256_
*304 _257_
*305 _258_
*306 _259_
*307 _260_
*308 _261_
*309 _262_
*310 _263_
*311 _264_
*312 _265_
*313 _266_
*314 _267_
*315 _268_
*316 _269_
*317 _270_
*318 _271_
*319 _272_
*320 PHY_10
*321 PHY_11
*322 PHY_12
*323 PHY_13
*324 PHY_14
*325 PHY_15
*326 PHY_16
*327 PHY_17
*328 PHY_18
*329 PHY_19
*330 PHY_20
*331 PHY_21
*332 PHY_22
*333 PHY_23
*334 PHY_24
*335 PHY_25
*336 PHY_26
*337 PHY_27
*338 PHY_28
*339 PHY_29
*340 PHY_30
*341 PHY_31
*342 PHY_32
*343 PHY_33
*344 PHY_34
*345 PHY_35
*346 PHY_36
*347 PHY_37
*348 PHY_38
*349 PHY_39
*350 PHY_40
*351 PHY_41
*352 PHY_42
*353 PHY_43
*354 PHY_44
*355 PHY_45
*356 PHY_46
*357 PHY_47
*358 PHY_48
*359 PHY_49
*360 PHY_50
*361 PHY_51
*362 PHY_52
*363 PHY_53
*364 PHY_54
*365 PHY_55
*366 input1
*367 input2
*368 input3
*369 input4
*370 input5
*371 input6
*372 input7
*373 input8
*374 input9
*375 input10
*376 input11
*377 output12
*378 _144__1
*379 _144__2
*380 _144__3
*381 _144__4
*382 _144__5
*383 _144__6
*384 _144__7
*385 _144__8
*386 _144__9
*387 _144__10
*388 _144__11
*389 _144__12
*390 _144__13
*391 _144__14
*392 _144__15
*393 _144__16
*394 _144__17
*395 _144__18
*396 _144__19
*397 clkbuf_1_0__f_clk
*398 clkbuf_1_1__f_clk
*399 FILLER_0_2
*400 FILLER_0_24
*401 FILLER_0_46
*402 FILLER_0_68
*403 FILLER_0_90
*404 FILLER_0_112
*405 FILLER_0_134
*406 FILLER_1_2
*407 FILLER_1_24
*408 FILLER_1_46
*409 FILLER_1_68
*410 FILLER_1_90
*411 FILLER_1_112
*412 FILLER_1_134
*413 FILLER_2_2
*414 FILLER_2_24
*415 FILLER_2_46
*416 FILLER_2_68
*417 FILLER_2_90
*418 FILLER_2_112
*419 FILLER_2_134
*420 FILLER_3_2
*421 FILLER_3_24
*422 FILLER_3_46
*423 FILLER_3_50
*424 FILLER_3_55
*425 FILLER_3_63
*426 FILLER_3_85
*427 FILLER_3_107
*428 FILLER_3_129
*429 FILLER_3_139
*430 FILLER_4_2
*431 FILLER_4_24
*432 FILLER_4_38
*433 FILLER_4_42
*434 FILLER_4_50
*435 FILLER_4_60
*436 FILLER_4_68
*437 FILLER_4_90
*438 FILLER_4_112
*439 FILLER_4_134
*440 FILLER_5_2
*441 FILLER_5_24
*442 FILLER_5_38
*443 FILLER_5_42
*444 FILLER_5_49
*445 FILLER_5_59
*446 FILLER_5_69
*447 FILLER_5_91
*448 FILLER_5_113
*449 FILLER_5_135
*450 FILLER_5_139
*451 FILLER_6_2
*452 FILLER_6_24
*453 FILLER_6_30
*454 FILLER_6_38
*455 FILLER_6_47
*456 FILLER_6_56
*457 FILLER_6_71
*458 FILLER_6_76
*459 FILLER_6_98
*460 FILLER_6_120
*461 FILLER_6_134
*462 FILLER_7_2
*463 FILLER_7_24
*464 FILLER_7_30
*465 FILLER_7_37
*466 FILLER_7_46
*467 FILLER_7_51
*468 FILLER_7_61
*469 FILLER_7_83
*470 FILLER_7_105
*471 FILLER_7_127
*472 FILLER_7_137
*473 FILLER_8_2
*474 FILLER_8_11
*475 FILLER_8_33
*476 FILLER_8_39
*477 FILLER_8_46
*478 FILLER_8_50
*479 FILLER_8_57
*480 FILLER_8_61
*481 FILLER_8_68
*482 FILLER_8_90
*483 FILLER_8_112
*484 FILLER_8_134
*485 FILLER_9_2
*486 FILLER_9_12
*487 FILLER_9_20
*488 FILLER_9_30
*489 FILLER_9_39
*490 FILLER_9_49
*491 FILLER_9_57
*492 FILLER_9_69
*493 FILLER_9_91
*494 FILLER_9_102
*495 FILLER_9_110
*496 FILLER_9_132
*497 FILLER_9_138
*498 FILLER_10_2
*499 FILLER_10_11
*500 FILLER_10_30
*501 FILLER_10_39
*502 FILLER_10_50
*503 FILLER_10_62
*504 FILLER_10_80
*505 FILLER_10_93
*506 FILLER_10_99
*507 FILLER_10_108
*508 FILLER_10_116
*509 FILLER_10_138
*510 FILLER_11_2
*511 FILLER_11_8
*512 FILLER_11_16
*513 FILLER_11_35
*514 FILLER_11_41
*515 FILLER_11_49
*516 FILLER_11_61
*517 FILLER_11_73
*518 FILLER_11_87
*519 FILLER_11_97
*520 FILLER_11_102
*521 FILLER_11_106
*522 FILLER_11_113
*523 FILLER_11_135
*524 FILLER_11_139
*525 FILLER_12_2
*526 FILLER_12_11
*527 FILLER_12_33
*528 FILLER_12_39
*529 FILLER_12_46
*530 FILLER_12_55
*531 FILLER_12_64
*532 FILLER_12_70
*533 FILLER_12_81
*534 FILLER_12_87
*535 FILLER_12_93
*536 FILLER_12_99
*537 FILLER_12_109
*538 FILLER_12_117
*539 FILLER_12_139
*540 FILLER_13_2
*541 FILLER_13_9
*542 FILLER_13_17
*543 FILLER_13_36
*544 FILLER_13_44
*545 FILLER_13_50
*546 FILLER_13_59
*547 FILLER_13_69
*548 FILLER_13_79
*549 FILLER_13_92
*550 FILLER_13_97
*551 FILLER_13_107
*552 FILLER_13_119
*553 FILLER_13_133
*554 FILLER_13_139
*555 FILLER_14_2
*556 FILLER_14_24
*557 FILLER_14_34
*558 FILLER_14_43
*559 FILLER_14_51
*560 FILLER_14_60
*561 FILLER_14_74
*562 FILLER_14_78
*563 FILLER_14_88
*564 FILLER_14_110
*565 FILLER_14_132
*566 FILLER_14_138
*567 FILLER_15_2
*568 FILLER_15_14
*569 FILLER_15_18
*570 FILLER_15_36
*571 FILLER_15_47
*572 FILLER_15_51
*573 FILLER_15_60
*574 FILLER_15_70
*575 FILLER_15_94
*576 FILLER_15_98
*577 FILLER_15_120
*578 FILLER_15_125
*579 FILLER_15_139
*580 FILLER_16_2
*581 FILLER_16_16
*582 FILLER_16_34
*583 FILLER_16_50
*584 FILLER_16_56
*585 FILLER_16_65
*586 FILLER_16_73
*587 FILLER_16_96
*588 FILLER_16_101
*589 FILLER_16_106
*590 FILLER_16_116
*591 FILLER_16_124
*592 FILLER_16_138
*593 FILLER_17_2
*594 FILLER_17_9
*595 FILLER_17_18
*596 FILLER_17_40
*597 FILLER_17_62
*598 FILLER_17_68
*599 FILLER_17_73
*600 FILLER_17_96
*601 FILLER_17_118
*602 FILLER_17_128
*603 FILLER_17_138
*604 FILLER_18_2
*605 FILLER_18_8
*606 FILLER_18_16
*607 FILLER_18_38
*608 FILLER_18_52
*609 FILLER_18_56
*610 FILLER_18_67
*611 FILLER_18_90
*612 FILLER_18_99
*613 FILLER_18_122
*614 FILLER_18_136
*615 FILLER_19_2
*616 FILLER_19_9
*617 FILLER_19_16
*618 FILLER_19_20
*619 FILLER_19_27
*620 FILLER_19_44
*621 FILLER_19_58
*622 FILLER_19_64
*623 FILLER_19_70
*624 FILLER_19_75
*625 FILLER_19_98
*626 FILLER_19_103
*627 FILLER_19_125
*628 FILLER_19_131
*629 FILLER_19_138
*630 FILLER_20_2
*631 FILLER_20_8
*632 FILLER_20_26
*633 FILLER_20_36
*634 FILLER_20_42
*635 FILLER_20_64
*636 FILLER_20_78
*637 FILLER_20_82
*638 FILLER_20_92
*639 FILLER_20_115
*640 FILLER_20_120
*641 FILLER_20_125
*642 FILLER_20_130
*643 FILLER_21_2
*644 FILLER_21_9
*645 FILLER_21_26
*646 FILLER_21_32
*647 FILLER_21_47
*648 FILLER_21_55
*649 FILLER_21_78
*650 FILLER_21_84
*651 FILLER_21_90
*652 FILLER_21_99
*653 FILLER_21_121
*654 FILLER_21_127
*655 FILLER_21_133
*656 FILLER_21_139
*657 FILLER_22_2
*658 FILLER_22_8
*659 FILLER_22_16
*660 FILLER_22_30
*661 FILLER_22_39
*662 FILLER_22_47
*663 FILLER_22_57
*664 FILLER_22_67
*665 FILLER_22_73
*666 FILLER_22_79
*667 FILLER_22_89
*668 FILLER_22_99
*669 FILLER_22_103
*670 FILLER_22_110
*671 FILLER_22_120
*672 FILLER_22_125
*673 FILLER_22_139
*674 FILLER_23_2
*675 FILLER_23_18
*676 FILLER_23_40
*677 FILLER_23_46
*678 FILLER_23_55
*679 FILLER_23_59
*680 FILLER_23_66
*681 FILLER_23_70
*682 FILLER_23_91
*683 FILLER_23_115
*684 FILLER_23_138
*685 FILLER_24_2
*686 FILLER_24_24
*687 FILLER_24_38
*688 FILLER_24_44
*689 FILLER_24_51
*690 FILLER_24_60
*691 FILLER_24_68
*692 FILLER_24_91
*693 FILLER_24_115
*694 FILLER_24_120
*695 FILLER_24_129
*696 FILLER_24_139
*697 FILLER_25_2
*698 FILLER_25_24
*699 FILLER_25_38
*700 FILLER_25_42
*701 FILLER_25_51
*702 FILLER_25_57
*703 FILLER_25_66
*704 FILLER_25_76
*705 FILLER_25_100
*706 FILLER_25_109
*707 FILLER_25_119
*708 FILLER_25_124
*709 FILLER_25_129
*710 FILLER_25_139
*711 FILLER_26_2
*712 FILLER_26_24
*713 FILLER_26_46
*714 FILLER_26_60
*715 FILLER_26_65
*716 FILLER_26_70
*717 FILLER_26_93
*718 FILLER_26_98
*719 FILLER_26_103
*720 FILLER_26_125
*721 FILLER_26_139
*722 FILLER_27_2
*723 FILLER_27_24
*724 FILLER_27_46
*725 FILLER_27_68
*726 FILLER_27_74
*727 FILLER_27_79
*728 FILLER_27_87
*729 FILLER_27_94
*730 FILLER_27_116
*731 FILLER_27_138

*PORTS
clk I
data_en I
load_en I
parallel_data_in[0] I
parallel_data_in[1] I
parallel_data_in[2] I
parallel_data_in[3] I
parallel_data_in[4] I
parallel_data_in[5] I
parallel_data_in[6] I
parallel_data_in[7] I
rst_n I
ser_out O

*D_NET *1 9.73051e-05
*CONN
*I *293:D I *D DLLx3_ASAP7_75t_SL
*I *180:Y O *D AND2x2_ASAP7_75t_SL
*CAP
1 *293:D 0
2 *180:Y 4.21256e-05
3 *1:6 4.21256e-05
4 *1:6 *180:A 5.0551e-07
5 *1:6 *293:CLK 1.25483e-05
*RES
1 *180:Y *1:6 35.9189 
2 *1:6 *293:D 17.2 
*END

*D_NET *2 5.09277e-05
*CONN
*I *294:D I *D DLLx3_ASAP7_75t_SL
*I *181:Y O *D AND2x2_ASAP7_75t_SL
*CAP
1 *294:D 0
2 *181:Y 2.54639e-05
3 *2:10 2.54639e-05
4 *2:10 *9:104 0
*RES
1 *181:Y *2:10 46.871 
2 *2:10 *294:D 34.4 
*END

*D_NET *3 1.98118e-05
*CONN
*I *295:D I *D DLLx3_ASAP7_75t_SL
*I *182:Y O *D AND2x2_ASAP7_75t_SL
*CAP
1 *295:D 0
2 *182:Y 9.90588e-06
3 *3:10 9.90588e-06
4 *3:10 *156:43 0
*RES
1 *182:Y *3:10 39.3835 
2 *3:10 *295:D 34.4 
*END

*D_NET *4 5.38181e-05
*CONN
*I *296:D I *D DLLx3_ASAP7_75t_SL
*I *183:Y O *D AND2x2_ASAP7_75t_SL
*CAP
1 *296:D 2.06349e-05
2 *183:Y 2.06349e-05
3 *296:D *296:CLK 1.25483e-05
*RES
1 *183:Y *296:D 47.7706 
*END

*D_NET *5 8.77917e-05
*CONN
*I *297:D I *D DLLx3_ASAP7_75t_SL
*I *184:Y O *D AND2x2_ASAP7_75t_SL
*CAP
1 *297:D 2.95061e-05
2 *184:Y 2.95061e-05
3 *297:D *297:CLK 5.62196e-06
4 *297:D *9:120 2.31575e-05
*RES
1 *184:Y *297:D 48.8403 
*END

*D_NET *6 2.51324e-05
*CONN
*I *298:D I *D DLLx1_ASAP7_75t_SL
*I *185:Y O *D AND2x2_ASAP7_75t_SL
*CAP
1 *298:D 6.72187e-06
2 *185:Y 5.56793e-06
3 *6:8 1.22898e-05
4 *6:8 *156:10 5.52807e-07
*RES
1 *185:Y *6:8 37.779 
2 *6:8 *298:D 37.0741 
*END

*D_NET *7 4.83769e-05
*CONN
*I *299:D I *D DLLx1_ASAP7_75t_SL
*I *186:Y O *D AND2x2_ASAP7_75t_SL
*CAP
1 *299:D 0
2 *186:Y 2.32801e-05
3 *7:10 2.32801e-05
4 *7:10 *298:CLK 0
5 *7:10 *9:84 0
6 *7:10 *9:104 5.52807e-07
7 *7:10 *156:10 0
8 *7:10 *156:80 1.26378e-06
*RES
1 *186:Y *7:10 48.9006 
2 *7:10 *299:D 34.4 
*END

*D_NET *8 4.51693e-05
*CONN
*I *300:D I *D DLLx1_ASAP7_75t_SL
*I *187:Y O *D AND2x2_ASAP7_75t_SL
*CAP
1 *300:D 2.25847e-05
2 *187:Y 2.25847e-05
*RES
1 *187:Y *300:D 47.7706 
*END

*D_NET *9 0.0010969
*CONN
*I *300:CLK I *D DLLx1_ASAP7_75t_SL
*I *294:CLK I *D DLLx3_ASAP7_75t_SL
*I *293:CLK I *D DLLx3_ASAP7_75t_SL
*I *296:CLK I *D DLLx3_ASAP7_75t_SL
*I *297:CLK I *D DLLx3_ASAP7_75t_SL
*I *295:CLK I *D DLLx3_ASAP7_75t_SL
*I *298:CLK I *D DLLx1_ASAP7_75t_SL
*I *299:CLK I *D DLLx1_ASAP7_75t_SL
*I *263:B1 I *D AO32x1_ASAP7_75t_SL
*I *257:A2 I *D AO22x1_ASAP7_75t_SL
*I *252:B1 I *D AO32x1_ASAP7_75t_SL
*I *273:B1 I *D AO32x1_ASAP7_75t_SL
*I *190:Y O *D AND2x4_ASAP7_75t_SL
*CAP
1 *300:CLK 0
2 *294:CLK 0
3 *293:CLK 4.38203e-06
4 *296:CLK 7.0323e-06
5 *297:CLK 1.50826e-06
6 *295:CLK 0
7 *298:CLK 6.78775e-06
8 *299:CLK 0
9 *263:B1 3.52635e-06
10 *257:A2 4.66812e-06
11 *252:B1 0
12 *273:B1 1.65968e-05
13 *190:Y 0
14 *9:163 1.80885e-06
15 *9:120 1.67005e-05
16 *9:112 4.28411e-05
17 *9:108 5.32859e-05
18 *9:106 3.81438e-05
19 *9:104 4.35943e-05
20 *9:84 2.83026e-05
21 *9:78 8.10534e-05
22 *9:76 5.82752e-05
23 *9:72 7.20109e-05
24 *9:66 5.29913e-05
25 *9:39 1.78518e-05
26 *9:22 4.41946e-05
27 *9:18 2.6838e-05
28 *9:16 1.98129e-05
29 *9:14 4.50096e-05
30 *9:8 9.32256e-05
31 *9:6 6.14408e-05
32 *257:A2 *257:B2 2.88806e-06
33 *273:B1 *57:20 1.44639e-06
34 *298:CLK *156:10 2.5899e-05
35 *9:8 *269:A1 0
36 *9:8 *55:22 0
37 *9:8 *63:45 0
38 *9:8 *84:23 9.62709e-06
39 *9:8 *96:12 8.58704e-06
40 *9:8 *99:10 1.29557e-05
41 *9:8 *119:38 0
42 *9:8 *119:49 3.79494e-06
43 *9:8 *138:140 4.97876e-07
44 *9:8 *156:202 0
45 *9:14 *138:132 1.37232e-05
46 *9:16 *39:10 0
47 *9:16 *84:51 7.35192e-06
48 *9:18 *38:10 4.75086e-06
49 *9:18 *39:10 0
50 *9:18 *84:51 1.182e-05
51 *9:18 *84:61 1.91805e-05
52 *9:22 *38:10 8.45215e-06
53 *9:22 *84:61 6.33206e-07
54 *9:39 *38:10 1.09067e-06
55 *9:39 *89:10 0
56 *9:66 *63:45 0
57 *9:66 *119:38 0
58 *9:72 *63:39 2.0523e-05
59 *9:72 *119:8 1.25606e-05
60 *9:84 *156:10 1.83729e-05
61 *9:104 *156:10 0
62 *9:104 *156:23 0
63 *9:104 *156:25 0
64 *9:104 *156:88 1.29228e-05
65 *9:106 *156:25 0
66 *9:108 *156:25 0
67 *9:108 *156:31 0
68 *9:112 *156:31 0
69 *9:112 *156:37 0
70 *9:120 *156:37 1.88253e-06
71 *9:120 *156:43 1.62854e-06
72 *296:D *296:CLK 1.25483e-05
73 *297:D *297:CLK 5.62196e-06
74 *297:D *9:120 2.31575e-05
75 *1:6 *293:CLK 1.25483e-05
76 *2:10 *9:104 0
77 *7:10 *298:CLK 0
78 *7:10 *9:84 0
79 *7:10 *9:104 5.52807e-07
*RES
1 *190:Y *9:6 34.4 
2 *9:6 *9:8 41.3927 
3 *9:8 *9:14 47.1698 
4 *9:14 *9:16 3.09741 
5 *9:16 *9:18 12.3897 
6 *9:18 *9:22 25.0843 
7 *9:22 *273:B1 26.292 
8 *9:22 *9:39 46.0281 
9 *9:39 *252:B1 17.2 
10 *9:18 *257:A2 37.0741 
11 *9:16 *263:B1 36.0045 
12 *9:6 *9:66 23.958 
13 *9:66 *9:72 49.7871 
14 *9:72 *9:76 30.6192 
15 *9:76 *9:78 11.4712 
16 *9:78 *9:84 29.5777 
17 *9:84 *299:CLK 34.4 
18 *9:84 *298:CLK 43.4107 
19 *9:78 *9:104 41.51 
20 *9:104 *9:106 9.01066 
21 *9:106 *9:108 16.3318 
22 *9:108 *9:112 35.7845 
23 *9:112 *9:120 49.237 
24 *9:120 *295:CLK 17.2 
25 *9:112 *297:CLK 18.8045 
26 *9:108 *296:CLK 38.1438 
27 *9:106 *293:CLK 38.1438 
28 *9:104 *294:CLK 34.4 
29 *9:76 *9:163 35.4325 
30 *9:163 *300:CLK 17.2 
*END

*D_NET *10 0.00015837
*CONN
*I *192:A I *D INVx1_ASAP7_75t_SL
*I *198:B I *D OA21x2_ASAP7_75t_SL
*I *319:QN O *D DFFLQNx1_ASAP7_75t_SL
*CAP
1 *192:A 1.86435e-05
2 *198:B 0
3 *319:QN 2.24627e-05
4 *10:10 2.26529e-05
5 *10:6 6.37591e-05
6 *10:6 *156:313 0
7 *10:10 *61:29 3.08514e-05
*RES
1 *319:QN *10:6 26.292 
2 *10:6 *10:10 40.853 
3 *10:10 *198:B 34.4 
4 *10:6 *192:A 25.2224 
*END

*D_NET *11 0.000232683
*CONN
*I *223:B I *D NAND2x1_ASAP7_75t_SL
*I *318:QN O *D DFFLQNx1_ASAP7_75t_SL
*CAP
1 *223:B 2.39719e-06
2 *318:QN 1.33963e-05
3 *11:18 2.30471e-05
4 *11:14 6.13506e-05
5 *11:8 5.4097e-05
6 *223:B *58:6 7.14604e-06
7 *11:14 *291:A 0
8 *11:14 *15:10 0
9 *11:14 *21:8 9.94583e-06
10 *11:14 *22:12 2.80709e-06
11 *11:14 *22:18 0
12 *11:14 *23:8 3.79919e-05
13 *11:14 *106:16 0
14 *11:18 *21:8 7.75e-06
15 *11:18 *22:18 1.27539e-05
16 *11:18 *106:16 0
*RES
1 *318:QN *11:8 40.2831 
2 *11:8 *11:14 48.5956 
3 *11:14 *11:18 36.9108 
4 *11:18 *223:B 36.5393 
*END

*D_NET *12 0.000231898
*CONN
*I *208:B I *D NAND2x1_ASAP7_75t_SL
*I *288:B I *D NOR2x1_ASAP7_75t_SL
*I *317:QN O *D DFFLQNx1_ASAP7_75t_SL
*CAP
1 *208:B 0
2 *288:B 1.23082e-05
3 *317:QN 0
4 *12:19 9.38339e-06
5 *12:6 6.84031e-05
6 *12:4 4.67115e-05
7 *12:6 *317:D 1.53057e-06
8 *12:6 *160:12 9.22012e-05
9 *12:19 *129:31 1.35961e-06
10 *12:19 *156:135 0
*RES
1 *317:QN *12:4 17.2 
2 *12:4 *12:6 39.0422 
3 *12:6 *288:B 24.1527 
4 *12:6 *12:19 41.158 
5 *12:19 *208:B 17.2 
*END

*D_NET *13 0.000223499
*CONN
*I *204:A I *D INVx1_ASAP7_75t_SL
*I *316:QN O *D DFFLQNx2_ASAP7_75t_SL
*CAP
1 *204:A 3.44999e-05
2 *316:QN 3.70031e-05
3 *13:12 3.73911e-05
4 *13:6 3.98943e-05
5 *204:A *316:D 9.98514e-06
6 *204:A *396:A 2.6409e-06
7 *204:A *129:12 1.25483e-05
8 *204:A *129:29 2.44619e-05
9 *204:A *161:12 1.01216e-05
10 *204:A *176:8 6.6195e-06
11 *13:6 *161:12 0
12 *13:12 *303:CLK 8.33296e-06
13 *13:12 *178:12 0
*RES
1 *316:QN *13:6 33.7796 
2 *13:6 *13:12 37.2158 
3 *13:12 *204:A 47.685 
*END

*D_NET *14 0.000431191
*CONN
*I *201:B I *D NAND2x1_ASAP7_75t_SL
*I *282:B I *D NAND2x1_ASAP7_75t_SL
*I *315:QN O *D DFFLQNx1_ASAP7_75t_SL
*CAP
1 *201:B 0
2 *282:B 2.58211e-06
3 *315:QN 5.20557e-06
4 *14:31 2.10131e-05
5 *14:16 3.4298e-05
6 *14:12 0.000100173
7 *14:10 8.94705e-05
8 *14:8 5.20557e-06
9 *14:8 *177:63 6.33206e-07
10 *14:16 *63:26 4.00374e-05
11 *14:16 *63:30 2.31101e-05
12 *14:16 *156:99 4.19043e-05
13 *14:16 *156:153 2.39014e-05
14 *14:31 *286:A 1.16894e-05
15 *14:31 *63:18 0
16 *14:31 *63:26 1.53071e-05
17 *14:31 *112:10 0
18 *14:31 *127:8 2.97289e-06
19 *14:31 *156:153 1.3687e-05
20 *14:31 *156:159 0
*RES
1 *315:QN *14:8 37.779 
2 *14:8 *14:10 17.2 
3 *14:10 *14:12 37.9726 
4 *14:12 *14:16 38.6003 
5 *14:16 *282:B 35.4697 
6 *14:16 *14:31 35.9509 
7 *14:31 *201:B 17.2 
*END

*D_NET *15 0.000164968
*CONN
*I *278:B I *D OR2x2_ASAP7_75t_SL
*I *291:A I *D INVx1_ASAP7_75t_SL
*I *314:QN O *D DFFLQNx1_ASAP7_75t_SL
*CAP
1 *278:B 5.79158e-06
2 *291:A 1.27127e-05
3 *314:QN 1.42722e-05
4 *15:10 4.9803e-05
5 *15:8 4.55709e-05
6 *278:B *116:12 1.5804e-05
7 *291:A *106:16 5.37569e-06
8 *15:10 *22:12 0
9 *15:10 *61:29 0
10 *15:10 *106:16 1.29336e-05
11 *15:10 *156:298 2.70427e-06
12 *11:14 *291:A 0
13 *11:14 *15:10 0
*RES
1 *314:QN *15:8 40.2831 
2 *15:8 *15:10 24.7793 
3 *15:10 *291:A 41.5795 
4 *15:10 *278:B 39.2134 
*END

*D_NET *16 0.000248396
*CONN
*I *222:A I *D INVx1_ASAP7_75t_SL
*I *313:QN O *D DFFLQNx2_ASAP7_75t_SL
*CAP
1 *222:A 8.65453e-06
2 *313:QN 9.16858e-06
3 *16:10 5.34583e-05
4 *16:8 5.39724e-05
5 *222:A *52:12 6.86929e-06
6 *16:8 *156:217 0
7 *16:10 *389:A 7.05633e-06
8 *16:10 *17:8 8.63375e-05
9 *16:10 *33:8 0
10 *16:10 *34:10 1.99409e-05
11 *16:10 *177:8 2.93828e-06
*RES
1 *313:QN *16:8 38.1438 
2 *16:8 *16:10 45.6164 
3 *16:10 *222:A 39.2134 
*END

*D_NET *17 0.000231721
*CONN
*I *219:A I *D INVx1_ASAP7_75t_SL
*I *312:QN O *D DFFLQNx2_ASAP7_75t_SL
*CAP
1 *219:A 9.40426e-06
2 *312:QN 0
3 *17:8 4.72383e-05
4 *17:6 3.78341e-05
5 *219:A *221:A2 7.63254e-07
6 *219:A *53:21 0
7 *219:A *55:10 3.48165e-06
8 *17:8 *29:12 5.68573e-06
9 *17:8 *33:8 0
10 *17:8 *34:10 9.81516e-06
11 *17:8 *55:10 2.1763e-05
12 *17:8 *172:12 0
13 *17:8 *177:8 9.39763e-06
14 *16:10 *17:8 8.63375e-05
*RES
1 *312:QN *17:6 34.4 
2 *17:6 *17:8 45.6164 
3 *17:8 *219:A 38.1438 
*END

*D_NET *18 7.71217e-05
*CONN
*I *216:A I *D INVx1_ASAP7_75t_SL
*I *311:QN O *D DFFLQNx2_ASAP7_75t_SL
*CAP
1 *216:A 1.19549e-05
2 *311:QN 1.15439e-05
3 *18:8 2.34988e-05
4 *216:A *263:B2 1.04475e-06
5 *216:A *53:21 0
6 *18:8 *19:12 1.12894e-06
7 *18:8 *55:10 3.79494e-06
8 *18:8 *172:12 2.41555e-05
*RES
1 *311:QN *18:8 46.2265 
2 *18:8 *216:A 39.2134 
*END

*D_NET *19 0.000145517
*CONN
*I *213:A I *D INVx1_ASAP7_75t_SL
*I *310:QN O *D DFFLQNx2_ASAP7_75t_SL
*CAP
1 *213:A 0
2 *310:QN 1.62677e-05
3 *19:12 2.28361e-05
4 *19:8 3.91039e-05
5 *19:8 *172:8 0
6 *19:12 *20:8 3.7081e-05
7 *19:12 *34:10 0
8 *19:12 *53:10 8.45637e-06
9 *19:12 *55:10 0
10 *19:12 *172:12 2.06427e-05
11 *18:8 *19:12 1.12894e-06
*RES
1 *310:QN *19:8 41.3527 
2 *19:8 *19:12 45.9215 
3 *19:12 *213:A 17.2 
*END

*D_NET *20 0.000215846
*CONN
*I *210:A I *D INVx1_ASAP7_75t_SL
*I *309:QN O *D DFFLQNx2_ASAP7_75t_SL
*CAP
1 *210:A 5.5009e-06
2 *309:QN 0
3 *20:8 7.61566e-05
4 *20:6 7.06557e-05
5 *210:A *252:B2 2.61188e-06
6 *20:8 *34:10 0
7 *20:8 *41:18 0
8 *20:8 *51:29 1.98438e-05
9 *20:8 *63:58 7.3874e-07
10 *20:8 *121:109 1.09067e-06
11 *20:8 *172:12 2.1664e-06
12 *19:12 *20:8 3.7081e-05
*RES
1 *309:QN *20:6 34.4 
2 *20:6 *20:8 62.5114 
3 *20:8 *210:A 37.0741 
*END

*D_NET *21 5.8025e-05
*CONN
*I *220:B I *D NAND2x1_ASAP7_75t_SL
*I *308:QN O *D DFFLQNx2_ASAP7_75t_SL
*CAP
1 *220:B 2.24074e-06
2 *308:QN 1.44607e-05
3 *21:8 1.67014e-05
4 *220:B *56:6 6.92634e-06
5 *21:8 *106:16 0
6 *11:14 *21:8 9.94583e-06
7 *11:18 *21:8 7.75e-06
*RES
1 *308:QN *21:8 48.4791 
2 *21:8 *220:B 36.5393 
*END

*D_NET *22 0.000349111
*CONN
*I *217:B I *D NAND2x1_ASAP7_75t_SL
*I *307:QN O *D DFFLQNx1_ASAP7_75t_SL
*CAP
1 *217:B 0
2 *307:QN 2.27006e-06
3 *22:18 6.01273e-05
4 *22:16 6.77957e-05
5 *22:12 3.95456e-05
6 *22:8 3.41472e-05
7 *22:8 *159:8 8.87763e-06
8 *22:8 *163:8 2.03526e-06
9 *22:8 *177:116 5.0551e-07
10 *22:12 *23:8 6.33206e-07
11 *22:12 *47:8 2.63359e-05
12 *22:12 *121:25 6.48427e-06
13 *22:12 *163:14 1.63973e-05
14 *22:18 *23:8 1.46419e-06
15 *22:18 *23:16 2.18135e-06
16 *22:18 *24:8 0
17 *22:18 *47:8 1.29088e-05
18 *22:18 *52:8 0
19 *22:18 *54:10 2.20128e-06
20 *22:18 *61:22 2.20028e-06
21 *22:18 *121:25 3.67645e-05
22 *22:18 *121:27 1.06745e-05
23 *11:14 *22:12 2.80709e-06
24 *11:14 *22:18 0
25 *11:18 *22:18 1.27539e-05
26 *15:10 *22:12 0
*RES
1 *307:QN *22:8 37.0741 
2 *22:8 *22:12 47.611 
3 *22:12 *22:16 19.8741 
4 *22:16 *22:18 56.3166 
5 *22:18 *217:B 34.4 
*END

*D_NET *23 0.000235821
*CONN
*I *214:B I *D NAND2x1_ASAP7_75t_SL
*I *306:QN O *D DFFLQNx1_ASAP7_75t_SL
*CAP
1 *214:B 2.02816e-06
2 *306:QN 1.3016e-05
3 *23:16 3.79258e-05
4 *23:14 5.39459e-05
5 *23:8 3.10643e-05
6 *23:8 *47:8 3.62429e-07
7 *23:8 *63:64 4.77995e-06
8 *23:16 *24:8 3.83977e-06
9 *23:16 *121:25 2.23312e-05
10 *23:16 *121:27 1.09845e-05
11 *23:16 *156:231 1.32726e-05
12 *11:14 *23:8 3.79919e-05
13 *22:12 *23:8 6.33206e-07
14 *22:18 *23:8 1.46419e-06
15 *22:18 *23:16 2.18135e-06
*RES
1 *306:QN *23:8 47.3528 
2 *23:8 *23:14 43.492 
3 *23:14 *23:16 35.4795 
4 *23:16 *214:B 35.4697 
*END

*D_NET *24 0.00015325
*CONN
*I *211:B I *D NAND2x1_ASAP7_75t_SL
*I *305:QN O *D DFFLQNx1_ASAP7_75t_SL
*CAP
1 *211:B 2.9187e-06
2 *305:QN 0
3 *24:8 5.63268e-05
4 *24:6 5.34081e-05
5 *24:8 *37:12 0
6 *24:8 *52:8 1.19435e-05
7 *24:8 *54:10 0
8 *24:8 *121:76 3.82366e-06
9 *24:8 *121:82 4.45472e-06
10 *24:8 *121:95 0
11 *24:8 *121:97 0
12 *24:8 *156:231 1.65352e-05
13 *24:8 *156:244 0
14 *22:18 *24:8 0
15 *23:16 *24:8 3.83977e-06
*RES
1 *305:QN *24:6 34.4 
2 *24:6 *24:8 39.4216 
3 *24:8 *211:B 36.0045 
*END

*D_NET *25 7.38605e-05
*CONN
*I *207:A I *D INVx1_ASAP7_75t_SL
*I *304:QN O *D DFFLQNx2_ASAP7_75t_SL
*CAP
1 *207:A 5.46603e-06
2 *304:QN 2.42835e-05
3 *25:8 2.97495e-05
4 *207:A *48:10 0
5 *207:A *125:8 0
6 *207:A *131:8 7.09787e-07
7 *25:8 *61:37 1.26407e-05
8 *25:8 *156:336 1.01102e-06
*RES
1 *304:QN *25:8 46.701 
2 *25:8 *207:A 37.779 
*END

*D_NET *26 0.000202727
*CONN
*I *205:B I *D NAND2x1_ASAP7_75t_SL
*I *303:QN O *D DFFLQNx1_ASAP7_75t_SL
*CAP
1 *205:B 4.33491e-06
2 *303:QN 2.14887e-05
3 *26:12 4.52367e-05
4 *26:8 6.23905e-05
5 *205:B *129:35 1.25483e-05
6 *26:8 *28:12 4.04733e-05
7 *26:12 *33:8 0
8 *26:12 *121:8 2.07088e-06
9 *26:12 *121:25 0
10 *26:12 *121:174 3.90551e-06
11 *26:12 *156:336 1.02783e-05
*RES
1 *303:QN *26:8 46.701 
2 *26:8 *26:12 46.4846 
3 *26:12 *205:B 20.9438 
*END

*D_NET *27 0.000102003
*CONN
*I *200:A I *D INVx1_ASAP7_75t_SL
*I *302:QN O *D DFFLQNx2_ASAP7_75t_SL
*CAP
1 *200:A 0
2 *302:QN 1.83343e-05
3 *27:12 2.37369e-05
4 *27:8 4.20712e-05
5 *27:12 *125:12 5.09299e-06
6 *27:12 *126:10 1.2768e-05
*RES
1 *302:QN *27:8 48.4791 
2 *27:8 *27:12 33.7796 
3 *27:12 *200:A 17.2 
*END

*D_NET *28 0.000155336
*CONN
*I *196:C I *D AND3x1_ASAP7_75t_SL
*I *301:QN O *D DFFLQNx2_ASAP7_75t_SL
*CAP
1 *196:C 0
2 *301:QN 1.48941e-05
3 *28:12 3.83113e-05
4 *28:8 5.32054e-05
5 *28:8 *133:23 1.09842e-06
6 *28:8 *160:10 0
7 *28:12 *121:174 7.35354e-06
8 *26:8 *28:12 4.04733e-05
*RES
1 *301:QN *28:8 43.4107 
2 *28:8 *28:12 43.4064 
3 *28:12 *196:C 17.2 
*END

*D_NET *29 0.000123375
*CONN
*I *398:A I *D BUFx4_ASAP7_75t_SL
*I *397:A I *D BUFx4_ASAP7_75t_SL
*I *191:Y O *D BUFx4_ASAP7_75t_SL
*CAP
1 *398:A 1.92608e-05
2 *397:A 0
3 *191:Y 0
4 *29:12 3.55944e-05
5 *29:6 5.48553e-05
6 *398:A *33:8 0
7 *398:A *129:35 6.6195e-06
8 *398:A *133:23 1.35961e-06
9 *29:12 *33:8 0
10 *29:12 *170:8 0
11 *17:8 *29:12 5.68573e-06
*RES
1 *191:Y *29:6 34.4 
2 *29:6 *29:12 43.4137 
3 *29:12 *397:A 17.2 
4 *29:6 *398:A 49.3504 
*END

*D_NET *30 0.000276392
*CONN
*I *301:D I *D DFFLQNx2_ASAP7_75t_SL
*I *203:Y O *D OA211x2_ASAP7_75t_SL
*CAP
1 *301:D 0
2 *203:Y 0
3 *30:14 2.4356e-05
4 *30:6 6.20577e-05
5 *30:4 3.77017e-05
6 *30:6 *209:C 5.51926e-05
7 *30:6 *45:8 4.09128e-05
8 *30:6 *63:106 1.52651e-06
9 *30:6 *129:20 2.33772e-05
10 *30:6 *156:135 9.08513e-06
11 *30:14 *176:12 2.2182e-05
12 *30:14 *178:12 0
*RES
1 *203:Y *30:4 17.2 
2 *30:4 *30:6 35.8333 
3 *30:6 *30:14 48.1674 
4 *30:14 *301:D 17.2 
*END

*D_NET *31 6.51414e-05
*CONN
*I *302:D I *D DFFLQNx2_ASAP7_75t_SL
*I *206:Y O *D OA211x2_ASAP7_75t_SL
*CAP
1 *302:D 1.4365e-05
2 *206:Y 8.74471e-06
3 *31:8 2.31097e-05
4 *31:8 *48:10 3.80016e-06
5 *31:8 *124:14 0
6 *31:8 *130:18 1.70708e-06
7 *31:8 *158:10 3.47607e-06
8 *31:8 *178:81 9.93857e-06
*RES
1 *206:Y *31:8 43.4107 
2 *31:8 *302:D 40.2831 
*END

*D_NET *32 7.63165e-05
*CONN
*I *303:D I *D DFFLQNx1_ASAP7_75t_SL
*I *209:Y O *D OA211x2_ASAP7_75t_SL
*CAP
1 *303:D 0
2 *209:Y 3.81583e-05
3 *32:6 3.81583e-05
*RES
1 *209:Y *32:6 34.8492 
2 *32:6 *303:D 17.2 
*END

*D_NET *33 0.000452686
*CONN
*I *304:D I *D DFFLQNx2_ASAP7_75t_SL
*I *212:Y O *D OA211x2_ASAP7_75t_SL
*CAP
1 *304:D 3.81267e-06
2 *212:Y 0
3 *33:8 0.000137909
4 *33:6 0.000134096
5 *304:D *304:CLK 0
6 *33:8 *224:A2 1.0674e-05
7 *33:8 *389:A 3.875e-06
8 *33:8 *35:10 0
9 *33:8 *36:10 6.78309e-06
10 *33:8 *53:27 1.43282e-05
11 *33:8 *57:8 2.32626e-06
12 *33:8 *61:47 3.95845e-06
13 *33:8 *121:8 0
14 *33:8 *121:54 2.68293e-05
15 *33:8 *121:95 1.64764e-06
16 *33:8 *121:97 3.32579e-06
17 *33:8 *121:174 0
18 *33:8 *156:223 3.69363e-05
19 *33:8 *156:272 9.39763e-06
20 *33:8 *171:8 5.52264e-06
21 *33:8 *177:8 1.21742e-05
22 *33:8 *177:32 2.71199e-05
23 *33:8 *177:45 8.06436e-06
24 *33:8 *178:56 3.32579e-06
25 *33:8 *178:88 5.79724e-07
26 *398:A *33:8 0
27 *16:10 *33:8 0
28 *17:8 *33:8 0
29 *26:12 *33:8 0
30 *29:12 *33:8 0
*RES
1 *212:Y *33:6 34.4 
2 *33:6 *33:8 121.644 
3 *33:8 *304:D 36.0045 
*END

*D_NET *34 8.88292e-05
*CONN
*I *305:D I *D DFFLQNx1_ASAP7_75t_SL
*I *215:Y O *D OA211x2_ASAP7_75t_SL
*CAP
1 *305:D 0
2 *215:Y 0
3 *34:10 2.14032e-05
4 *34:6 2.14032e-05
5 *34:10 *51:29 0
6 *34:10 *55:10 1.62666e-05
7 *16:10 *34:10 1.99409e-05
8 *17:8 *34:10 9.81516e-06
9 *19:12 *34:10 0
10 *20:8 *34:10 0
*RES
1 *215:Y *34:6 34.4 
2 *34:6 *34:10 37.474 
3 *34:10 *305:D 17.2 
*END

*D_NET *35 0.000314837
*CONN
*I *306:D I *D DFFLQNx1_ASAP7_75t_SL
*I *218:Y O *D OA211x2_ASAP7_75t_SL
*CAP
1 *306:D 0
2 *218:Y 9.32083e-06
3 *35:10 4.38895e-05
4 *35:8 5.32103e-05
5 *35:8 *54:14 1.60115e-05
6 *35:10 *218:C 6.94376e-06
7 *35:10 *36:10 8.58663e-05
8 *35:10 *37:12 6.06986e-05
9 *35:10 *53:27 4.73551e-06
10 *35:10 *121:54 5.52807e-07
11 *35:10 *121:67 5.16782e-06
12 *35:10 *121:95 9.77825e-06
13 *35:10 *156:231 0
14 *35:10 *156:244 2.17267e-06
15 *35:10 *156:246 1.1424e-05
16 *35:10 *156:292 0
17 *35:10 *169:8 5.06565e-06
18 *33:8 *35:10 0
*RES
1 *218:Y *35:8 39.2134 
2 *35:8 *35:10 54.0639 
3 *35:10 *306:D 34.4 
*END

*D_NET *36 0.000295448
*CONN
*I *307:D I *D DFFLQNx1_ASAP7_75t_SL
*I *221:Y O *D OA211x2_ASAP7_75t_SL
*CAP
1 *307:D 6.89321e-06
2 *221:Y 9.95055e-06
3 *36:10 5.97837e-05
4 *36:8 6.2841e-05
5 *307:D *177:49 2.03526e-06
6 *307:D *177:116 5.09299e-06
7 *36:8 *221:C 4.15535e-06
8 *36:8 *56:6 5.22376e-07
9 *36:8 *156:233 6.7842e-07
10 *36:10 *156:223 7.51188e-06
11 *36:10 *156:292 0
12 *36:10 *171:8 3.89399e-05
13 *36:10 *177:32 4.3937e-06
14 *33:8 *36:10 6.78309e-06
15 *35:10 *36:10 8.58663e-05
*RES
1 *221:Y *36:8 38.1438 
2 *36:8 *36:10 56.3166 
3 *36:10 *307:D 39.2134 
*END

*D_NET *37 0.000147145
*CONN
*I *308:D I *D DFFLQNx2_ASAP7_75t_SL
*I *224:Y O *D OA211x2_ASAP7_75t_SL
*CAP
1 *308:D 0
2 *224:Y 9.33626e-06
3 *37:12 1.59391e-05
4 *37:8 2.52754e-05
5 *37:8 *58:6 1.60115e-05
6 *37:12 *156:231 0
7 *37:12 *156:244 1.98844e-05
8 *24:8 *37:12 0
9 *35:10 *37:12 6.06986e-05
*RES
1 *224:Y *37:8 39.2134 
2 *37:8 *37:12 37.474 
3 *37:12 *308:D 17.2 
*END

*D_NET *38 0.000324337
*CONN
*I *309:D I *D DFFLQNx2_ASAP7_75t_SL
*I *252:Y O *D AO32x1_ASAP7_75t_SL
*CAP
1 *309:D 0