*SPEF "ieee 1481-1999"
*DESIGN "serializer"
*DATE "11:11:11 Fri 11 11, 1111"
*VENDOR "OpenRCX"
*PROGRAM "Parallel Extraction"
*VERSION "1.0"
*DESIGN_FLOW "NAME_SCOPE LOCAL" "PIN_CAP NONE"
*DIVIDER /
*DELIMITER :
*BUS_DELIMITER []
*T_UNIT 1 NS
*C_UNIT 1 PF
*R_UNIT 1 OHM
*L_UNIT 1 HENRY

*NAME_MAP
*1 _000_
*2 _001_
*3 _002_
*4 _003_
*5 _004_
*6 _005_
*7 _006_
*8 _007_
*9 _008_
*10 _009_
*11 _010_
*12 _011_
*13 _012_
*14 _013_
*15 _014_
*16 _015_
*17 _016_
*18 _017_
*19 _018_
*20 _019_
*21 clknet_0_clock
*22 _021_
*23 _022_
*24 _023_
*25 _024_
*26 _025_
*27 _026_
*28 _027_
*29 _028_
*30 _029_
*31 _030_
*32 _031_
*33 _032_
*34 _033_
*35 _034_
*36 _035_
*37 _036_
*38 _037_
*39 _038_
*40 _039_
*41 _040_
*42 _041_
*43 _042_
*44 _043_
*45 _044_
*47 _046_
*48 _047_
*49 _048_
*50 _049_
*51 _050_
*52 _051_
*53 _052_
*54 _053_
*55 _054_
*56 _055_
*57 _056_
*58 _057_
*59 _058_
*60 _059_
*61 _060_
*62 _061_
*63 net4
*64 net3
*65 _064_
*66 _065_
*67 net2
*68 _067_
*69 _068_
*70 _069_
*71 _070_
*72 _071_
*73 _072_
*74 _073_
*75 _074_
*76 _075_
*77 _076_
*78 _077_
*79 _078_
*80 _079_
*81 _080_
*82 _081_
*83 _082_
*84 _083_
*85 _084_
*86 _085_
*87 _086_
*88 _087_
*89 _088_
*90 _089_
*91 _090_
*92 _091_
*93 _092_
*94 _093_
*95 _094_
*96 _095_
*97 _096_
*98 net1
*100 clock
*101 din[0]
*102 din[10]
*103 din[11]
*104 din[12]
*105 din[13]
*106 din[14]
*107 din[15]
*108 din[1]
*109 din[2]
*110 din[3]
*111 din[4]
*112 din[5]
*113 din[6]
*114 din[7]
*115 din[8]
*116 din[9]
*117 dout
*118 enable
*119 net5
*120 net6
*121 net7
*122 net8
*123 net9
*124 net10
*125 net11
*126 net12
*127 net13
*128 net14
*129 net15
*130 net16
*131 net17
*132 net18
*133 net19
*134 net20
*135 net21
*136 net22
*137 clknet_1_0__leaf_clock
*138 clknet_1_1__leaf_clock
*139 net23
*140 net24
*141 net25
*142 net26
*143 net27
*144 net28
*145 net29
*146 net30
*147 PHY_5
*148 PHY_4
*149 _101_
*150 _102_
*151 PHY_3
*152 _104_
*153 _105_
*154 _106_
*155 _107_
*156 _108_
*157 _109_
*158 _110_
*159 _111_
*160 _112_
*161 _113_
*162 _114_
*163 _115_
*164 _116_
*165 _117_
*166 _118_
*167 _119_
*168 _120_
*169 _121_
*170 _122_
*171 _123_
*172 _124_
*173 _125_
*174 _126_
*175 _127_
*176 _128_
*177 _129_
*178 _130_
*179 _131_
*180 _132_
*181 _133_
*182 clkbuf_0_clock
*183 _135_
*184 PHY_2
*185 PHY_1
*186 _138_
*187 _139_
*188 _140_
*189 _141_
*190 _142_
*191 _143_
*192 _144_
*193 _145_
*194 PHY_0
*195 _147_
*196 _148_
*197 _149_
*198 _150_
*199 _151_
*200 _152_
*201 _153_
*202 _154_
*203 _155_
*204 _156_
*205 _157_
*206 _158_
*207 _159_
*208 _160_
*209 _161_
*210 _162_
*211 _163_
*212 _164_
*213 _165_
*214 _166_
*215 _167_
*216 _168_
*217 _169_
*218 _170_
*219 _171_
*220 _172_
*221 _173_
*222 _174_
*223 _175_
*224 _176_
*225 _177_
*226 _178_
*227 _179_
*228 _180_
*229 _181_
*230 _182_
*231 _183_
*232 _184_
*233 _185_
*234 _186_
*235 _187_
*236 _188_
*237 _189_
*238 _190_
*239 _191_
*240 _192_
*241 _193_
*242 _194_
*243 _195_
*244 _196_
*245 _197_
*246 _198_
*247 PHY_6
*248 PHY_7
*249 PHY_8
*250 PHY_9
*251 PHY_10
*252 PHY_11
*253 PHY_12
*254 PHY_13
*255 PHY_14
*256 PHY_15
*257 PHY_16
*258 PHY_17
*259 PHY_18
*260 PHY_19
*261 PHY_20
*262 PHY_21
*263 PHY_22
*264 PHY_23
*265 PHY_24
*266 PHY_25
*267 PHY_26
*268 PHY_27
*269 PHY_28
*270 PHY_29
*271 PHY_30
*272 PHY_31
*273 PHY_32
*274 PHY_33
*275 PHY_34
*276 PHY_35
*277 PHY_36
*278 PHY_37
*279 PHY_38
*280 PHY_39
*281 PHY_40
*282 PHY_41
*283 PHY_42
*284 PHY_43
*285 PHY_44
*286 PHY_45
*287 PHY_46
*288 PHY_47
*289 PHY_48
*290 PHY_49
*291 PHY_50
*292 PHY_51
*293 PHY_52
*294 PHY_53
*295 PHY_54
*296 PHY_55
*297 PHY_56
*298 PHY_57
*299 PHY_58
*300 PHY_59
*301 PHY_60
*302 PHY_61
*303 PHY_62
*304 PHY_63
*305 PHY_64
*306 PHY_65
*307 PHY_66
*308 PHY_67
*309 PHY_68
*310 PHY_69
*311 PHY_70
*312 PHY_71
*313 PHY_72
*314 PHY_73
*315 PHY_74
*316 PHY_75
*317 PHY_76
*318 PHY_77
*319 PHY_78
*320 PHY_79
*321 PHY_80
*322 PHY_81
*323 PHY_82
*324 PHY_83
*325 input1
*326 input2
*327 input3
*328 input4
*329 input5
*330 input6
*331 input7
*332 input8
*333 input9
*334 input10
*335 input11
*336 input12
*337 input13
*338 input14
*339 input15
*340 input16
*341 input17
*342 output18
*343 _134__1
*344 _134__2
*345 _134__3
*346 _134__4
*347 clkbuf_1_0__f_clock
*348 clkbuf_1_1__f_clock
*349 split5
*350 rebuffer6
*351 rebuffer7
*352 rebuffer8
*353 rebuffer9
*354 rebuffer10
*355 rebuffer11
*356 rebuffer12
*357 FILLER_0_2
*358 FILLER_0_24
*359 FILLER_0_46
*360 FILLER_0_68
*361 FILLER_0_82
*362 FILLER_0_88
*363 FILLER_0_98
*364 FILLER_0_105
*365 FILLER_0_119
*366 FILLER_0_127
*367 FILLER_0_149
*368 FILLER_0_171
*369 FILLER_0_193
*370 FILLER_0_207
*371 FILLER_1_2
*372 FILLER_1_24
*373 FILLER_1_46
*374 FILLER_1_68
*375 FILLER_1_90
*376 FILLER_1_112
*377 FILLER_1_134
*378 FILLER_1_156
*379 FILLER_1_178
*380 FILLER_1_200
*381 FILLER_1_210
*382 FILLER_2_2
*383 FILLER_2_24
*384 FILLER_2_46
*385 FILLER_2_68
*386 FILLER_2_90
*387 FILLER_2_112
*388 FILLER_2_134
*389 FILLER_2_156
*390 FILLER_2_178
*391 FILLER_2_200
*392 FILLER_2_210
*393 FILLER_3_2
*394 FILLER_3_24
*395 FILLER_3_46
*396 FILLER_3_68
*397 FILLER_3_90
*398 FILLER_3_112
*399 FILLER_3_134
*400 FILLER_3_156
*401 FILLER_3_178
*402 FILLER_3_200
*403 FILLER_3_210
*404 FILLER_4_2
*405 FILLER_4_24
*406 FILLER_4_46
*407 FILLER_4_68
*408 FILLER_4_90
*409 FILLER_4_112
*410 FILLER_4_134
*411 FILLER_4_156
*412 FILLER_4_178
*413 FILLER_4_200
*414 FILLER_4_210
*415 FILLER_5_2
*416 FILLER_5_24
*417 FILLER_5_46
*418 FILLER_5_68
*419 FILLER_5_90
*420 FILLER_5_112
*421 FILLER_5_134
*422 FILLER_5_156
*423 FILLER_5_178
*424 FILLER_5_200
*425 FILLER_5_210
*426 FILLER_6_2
*427 FILLER_6_24
*428 FILLER_6_46
*429 FILLER_6_68
*430 FILLER_6_90
*431 FILLER_6_112
*432 FILLER_6_134
*433 FILLER_6_156
*434 FILLER_6_178
*435 FILLER_6_200
*436 FILLER_6_210
*437 FILLER_7_2
*438 FILLER_7_24
*439 FILLER_7_46
*440 FILLER_7_68
*441 FILLER_7_90
*442 FILLER_7_112
*443 FILLER_7_134
*444 FILLER_7_156
*445 FILLER_7_178
*446 FILLER_7_200
*447 FILLER_7_210
*448 FILLER_8_2
*449 FILLER_8_24
*450 FILLER_8_46
*451 FILLER_8_68
*452 FILLER_8_90
*453 FILLER_8_112
*454 FILLER_8_134
*455 FILLER_8_156
*456 FILLER_8_178
*457 FILLER_8_200
*458 FILLER_8_210
*459 FILLER_9_2
*460 FILLER_9_24
*461 FILLER_9_46
*462 FILLER_9_68
*463 FILLER_9_90
*464 FILLER_9_112
*465 FILLER_9_134
*466 FILLER_9_156
*467 FILLER_9_178
*468 FILLER_9_200
*469 FILLER_9_210
*470 FILLER_10_2
*471 FILLER_10_24
*472 FILLER_10_46
*473 FILLER_10_68
*474 FILLER_10_90
*475 FILLER_10_112
*476 FILLER_10_134
*477 FILLER_10_156
*478 FILLER_10_178
*479 FILLER_10_200
*480 FILLER_10_210
*481 FILLER_11_2
*482 FILLER_11_24
*483 FILLER_11_46
*484 FILLER_11_68
*485 FILLER_11_90
*486 FILLER_11_112
*487 FILLER_11_134
*488 FILLER_11_156
*489 FILLER_11_178
*490 FILLER_11_200
*491 FILLER_11_210
*492 FILLER_12_2
*493 FILLER_12_24
*494 FILLER_12_46
*495 FILLER_12_68
*496 FILLER_12_78
*497 FILLER_12_102
*498 FILLER_12_112
*499 FILLER_12_118
*500 FILLER_12_127
*501 FILLER_12_149
*502 FILLER_12_171
*503 FILLER_12_193
*504 FILLER_12_207
*505 FILLER_13_2
*506 FILLER_13_8
*507 FILLER_13_16
*508 FILLER_13_38
*509 FILLER_13_60
*510 FILLER_13_82
*511 FILLER_13_90
*512 FILLER_13_113
*513 FILLER_13_136
*514 FILLER_13_158
*515 FILLER_13_180
*516 FILLER_13_202
*517 FILLER_13_208
*518 FILLER_14_2
*519 FILLER_14_26
*520 FILLER_14_48
*521 FILLER_14_70
*522 FILLER_14_90
*523 FILLER_14_100
*524 FILLER_14_109
*525 FILLER_14_119
*526 FILLER_14_127
*527 FILLER_14_149
*528 FILLER_14_171
*529 FILLER_14_193
*530 FILLER_14_207
*531 FILLER_15_2
*532 FILLER_15_6
*533 FILLER_15_13
*534 FILLER_15_21
*535 FILLER_15_29
*536 FILLER_15_43
*537 FILLER_15_52
*538 FILLER_15_66
*539 FILLER_15_70
*540 FILLER_15_75
*541 FILLER_15_97
*542 FILLER_15_119
*543 FILLER_15_123
*544 FILLER_15_130
*545 FILLER_15_152
*546 FILLER_15_174
*547 FILLER_15_196
*548 FILLER_15_202
*549 FILLER_15_209
*550 FILLER_16_2
*551 FILLER_16_9
*552 FILLER_16_40
*553 FILLER_16_62
*554 FILLER_16_68
*555 FILLER_16_92
*556 FILLER_16_98
*557 FILLER_16_106
*558 FILLER_16_116
*559 FILLER_16_139
*560 FILLER_16_161
*561 FILLER_16_183
*562 FILLER_16_205
*563 FILLER_17_2
*564 FILLER_17_24
*565 FILLER_17_29
*566 FILLER_17_39
*567 FILLER_17_48
*568 FILLER_17_58
*569 FILLER_17_64
*570 FILLER_17_71
*571 FILLER_17_98
*572 FILLER_17_102
*573 FILLER_17_109
*574 FILLER_17_117
*575 FILLER_17_123
*576 FILLER_17_130
*577 FILLER_17_152
*578 FILLER_17_174
*579 FILLER_17_196
*580 FILLER_17_210
*581 FILLER_18_2
*582 FILLER_18_6
*583 FILLER_18_12
*584 FILLER_18_18
*585 FILLER_18_26
*586 FILLER_18_34
*587 FILLER_18_43
*588 FILLER_18_53
*589 FILLER_18_68
*590 FILLER_18_81
*591 FILLER_18_89
*592 FILLER_18_97
*593 FILLER_18_107
*594 FILLER_18_117
*595 FILLER_18_139
*596 FILLER_18_161
*597 FILLER_18_183
*598 FILLER_18_205
*599 FILLER_19_2
*600 FILLER_19_18
*601 FILLER_19_41
*602 FILLER_19_49
*603 FILLER_19_59
*604 FILLER_19_63
*605 FILLER_19_71
*606 FILLER_19_79
*607 FILLER_19_87
*608 FILLER_19_92
*609 FILLER_19_102
*610 FILLER_19_118
*611 FILLER_19_140
*612 FILLER_19_162
*613 FILLER_19_176
*614 FILLER_19_184
*615 FILLER_19_206
*616 FILLER_19_210
*617 FILLER_20_2
*618 FILLER_20_33
*619 FILLER_20_38
*620 FILLER_20_52
*621 FILLER_20_61
*622 FILLER_20_69
*623 FILLER_20_85
*624 FILLER_20_93
*625 FILLER_20_105
*626 FILLER_20_113
*627 FILLER_20_135
*628 FILLER_20_157
*629 FILLER_20_179
*630 FILLER_20_201
*631 FILLER_21_2
*632 FILLER_21_9
*633 FILLER_21_19
*634 FILLER_21_27
*635 FILLER_21_49
*636 FILLER_21_53
*637 FILLER_21_60
*638 FILLER_21_70
*639 FILLER_21_78
*640 FILLER_21_101
*641 FILLER_21_113
*642 FILLER_21_135
*643 FILLER_21_157
*644 FILLER_21_179
*645 FILLER_21_193
*646 FILLER_21_201
*647 FILLER_22_2
*648 FILLER_22_9
*649 FILLER_22_19
*650 FILLER_22_27
*651 FILLER_22_44
*652 FILLER_22_54
*653 FILLER_22_68
*654 FILLER_22_72
*655 FILLER_22_94
*656 FILLER_22_99
*657 FILLER_22_103
*658 FILLER_22_112
*659 FILLER_22_120
*660 FILLER_22_142
*661 FILLER_22_164
*662 FILLER_22_186
*663 FILLER_22_208
*664 FILLER_23_2
*665 FILLER_23_25
*666 FILLER_23_34
*667 FILLER_23_46
*668 FILLER_23_68
*669 FILLER_23_74
*670 FILLER_23_78
*671 FILLER_23_85
*672 FILLER_23_91
*673 FILLER_23_99
*674 FILLER_23_105
*675 FILLER_23_115
*676 FILLER_23_137
*677 FILLER_23_159
*678 FILLER_23_181
*679 FILLER_23_203
*680 FILLER_23_209
*681 FILLER_24_2
*682 FILLER_24_12
*683 FILLER_24_19
*684 FILLER_24_25
*685 FILLER_24_47
*686 FILLER_24_69
*687 FILLER_24_91
*688 FILLER_24_97
*689 FILLER_24_106
*690 FILLER_24_115
*691 FILLER_24_121
*692 FILLER_24_143
*693 FILLER_24_165
*694 FILLER_24_187
*695 FILLER_24_209
*696 FILLER_25_2
*697 FILLER_25_12
*698 FILLER_25_35
*699 FILLER_25_40
*700 FILLER_25_48
*701 FILLER_25_58
*702 FILLER_25_66
*703 FILLER_25_88
*704 FILLER_25_94
*705 FILLER_25_98
*706 FILLER_25_106
*707 FILLER_25_131
*708 FILLER_25_139
*709 FILLER_25_161
*710 FILLER_25_183
*711 FILLER_25_205
*712 FILLER_26_2
*713 FILLER_26_9
*714 FILLER_26_17
*715 FILLER_26_27
*716 FILLER_26_34
*717 FILLER_26_56
*718 FILLER_26_62
*719 FILLER_26_70
*720 FILLER_26_92
*721 FILLER_26_100
*722 FILLER_26_108
*723 FILLER_26_130
*724 FILLER_26_134
*725 FILLER_26_141
*726 FILLER_26_163
*727 FILLER_26_185
*728 FILLER_26_207
*729 FILLER_27_2
*730 FILLER_27_24
*731 FILLER_27_46
*732 FILLER_27_52
*733 FILLER_27_74
*734 FILLER_27_97
*735 FILLER_27_109
*736 FILLER_27_117
*737 FILLER_27_127
*738 FILLER_27_149
*739 FILLER_27_171
*740 FILLER_27_193
*741 FILLER_27_207
*742 FILLER_28_2
*743 FILLER_28_24
*744 FILLER_28_46
*745 FILLER_28_60
*746 FILLER_28_69
*747 FILLER_28_79
*748 FILLER_28_88
*749 FILLER_28_111
*750 FILLER_28_134
*751 FILLER_28_156
*752 FILLER_28_178
*753 FILLER_28_200
*754 FILLER_28_210
*755 FILLER_29_2
*756 FILLER_29_24
*757 FILLER_29_46
*758 FILLER_29_68
*759 FILLER_29_90
*760 FILLER_29_106
*761 FILLER_29_116
*762 FILLER_29_125
*763 FILLER_29_147
*764 FILLER_29_169
*765 FILLER_29_191
*766 FILLER_29_205
*767 FILLER_30_2
*768 FILLER_30_24
*769 FILLER_30_46
*770 FILLER_30_68
*771 FILLER_30_90
*772 FILLER_30_112
*773 FILLER_30_134
*774 FILLER_30_156
*775 FILLER_30_178
*776 FILLER_30_200
*777 FILLER_30_210
*778 FILLER_31_2
*779 FILLER_31_24
*780 FILLER_31_46
*781 FILLER_31_68
*782 FILLER_31_90
*783 FILLER_31_112
*784 FILLER_31_134
*785 FILLER_31_156
*786 FILLER_31_178
*787 FILLER_31_200
*788 FILLER_31_210
*789 FILLER_32_2
*790 FILLER_32_24
*791 FILLER_32_46
*792 FILLER_32_68
*793 FILLER_32_90
*794 FILLER_32_112
*795 FILLER_32_134
*796 FILLER_32_156
*797 FILLER_32_178
*798 FILLER_32_200
*799 FILLER_32_210
*800 FILLER_33_2
*801 FILLER_33_24
*802 FILLER_33_46
*803 FILLER_33_68
*804 FILLER_33_90
*805 FILLER_33_112
*806 FILLER_33_134
*807 FILLER_33_156
*808 FILLER_33_178
*809 FILLER_33_200
*810 FILLER_33_210
*811 FILLER_34_2
*812 FILLER_34_24
*813 FILLER_34_46
*814 FILLER_34_68
*815 FILLER_34_90
*816 FILLER_34_112
*817 FILLER_34_134
*818 FILLER_34_156
*819 FILLER_34_178
*820 FILLER_34_200
*821 FILLER_34_210
*822 FILLER_35_2
*823 FILLER_35_24
*824 FILLER_35_46
*825 FILLER_35_68
*826 FILLER_35_90
*827 FILLER_35_112
*828 FILLER_35_134
*829 FILLER_35_156
*830 FILLER_35_178
*831 FILLER_35_200
*832 FILLER_35_210
*833 FILLER_36_2
*834 FILLER_36_24
*835 FILLER_36_46
*836 FILLER_36_68
*837 FILLER_36_90
*838 FILLER_36_112
*839 FILLER_36_134
*840 FILLER_36_156
*841 FILLER_36_178
*842 FILLER_36_200
*843 FILLER_36_210
*844 FILLER_37_2
*845 FILLER_37_24
*846 FILLER_37_46
*847 FILLER_37_68
*848 FILLER_37_90
*849 FILLER_37_112
*850 FILLER_37_134
*851 FILLER_37_156
*852 FILLER_37_178
*853 FILLER_37_200
*854 FILLER_37_210
*855 FILLER_38_2
*856 FILLER_38_24
*857 FILLER_38_46
*858 FILLER_38_68
*859 FILLER_38_90
*860 FILLER_38_112
*861 FILLER_38_134
*862 FILLER_38_156
*863 FILLER_38_178
*864 FILLER_38_200
*865 FILLER_38_210
*866 FILLER_39_2
*867 FILLER_39_24
*868 FILLER_39_46
*869 FILLER_39_68
*870 FILLER_39_90
*871 FILLER_39_112
*872 FILLER_39_134
*873 FILLER_39_156
*874 FILLER_39_178
*875 FILLER_39_200
*876 FILLER_39_210
*877 FILLER_40_2
*878 FILLER_40_24
*879 FILLER_40_46
*880 FILLER_40_68
*881 FILLER_40_78
*882 FILLER_40_85
*883 FILLER_40_107
*884 FILLER_40_129
*885 FILLER_40_151
*886 FILLER_40_173
*887 FILLER_40_195
*888 FILLER_40_209
*889 FILLER_41_2
*890 FILLER_41_24
*891 FILLER_41_46
*892 FILLER_41_60
*893 FILLER_41_69
*894 FILLER_41_91
*895 FILLER_41_97
*896 FILLER_41_104
*897 FILLER_41_118
*898 FILLER_41_127
*899 FILLER_41_133
*900 FILLER_41_140
*901 FILLER_41_162
*902 FILLER_41_184
*903 FILLER_41_206
*904 FILLER_41_210

*PORTS
clock I
din[0] I
din[10] I
din[11] I
din[12] I
din[13] I
din[14] I
din[15] I
din[1] I
din[2] I
din[3] I
din[4] I
din[5] I
din[6] I
din[7] I
din[8] I
din[9] I
dout O
enable I

*D_NET *1 0.000437562
*CONN
*I *355:A I *D BUFx3_ASAP7_75t_R
*I *168:C I *D OA211x2_ASAP7_75t_R
*I *183:C I *D AND4x2_ASAP7_75t_R
*I *176:B I *D AND2x2_ASAP7_75t_R
*I *171:A I *D INVx1_ASAP7_75t_R
*I *245:QN O *D DFFLQNx2_ASAP7_75t_R
*CAP
1 *355:A 1.02581e-05
2 *168:C 0
3 *183:C 0
4 *176:B 2.16769e-05
5 *171:A 0
6 *245:QN 2.29676e-06
7 *1:53 2.92056e-06
8 *1:47 3.10586e-05
9 *1:23 3.51385e-05
10 *1:21 4.76307e-05
11 *1:12 1.58406e-05
12 *1:8 2.23644e-05
13 *176:B *353:A 5.0551e-07
14 *176:B *3:16 0
15 *176:B *4:47 1.692e-05
16 *176:B *4:58 6.97416e-06
17 *355:A *87:48 0
18 *355:A *145:8 2.66797e-07
19 *355:A *145:12 9.8992e-06
20 *1:8 *87:12 0
21 *1:8 *87:48 0
22 *1:8 *145:12 3.92018e-06
23 *1:21 *87:8 2.03526e-06
24 *1:23 *3:16 0
25 *1:23 *4:58 6.94301e-05
26 *1:23 *87:12 5.83654e-05
27 *1:23 *87:48 8.33296e-06
28 *1:23 *97:8 8.96443e-08
29 *1:47 *168:A1 3.56648e-06
30 *1:47 *168:B 5.19552e-07
31 *1:47 *4:58 2.33787e-05
32 *1:47 *4:84 2.20127e-05
33 *1:47 *87:48 1.85329e-05
34 *1:47 *145:12 0
35 *1:53 *4:70 0
36 *1:53 *139:16 3.6269e-06
*RES
1 *245:QN *1:8 37.2158 
2 *1:8 *1:12 23.0831 
3 *1:12 *171:A 17.2 
4 *1:12 *1:21 20.9438 
5 *1:21 *1:23 23.653 
6 *1:23 *176:B 47.6326 
7 *1:23 *183:C 34.4 
8 *1:21 *1:47 39.3582 
9 *1:47 *1:53 37.2158 
10 *1:53 *168:C 17.2 
11 *1:8 *355:A 43.8888 
*END

*D_NET *2 0.000430628
*CONN
*I *356:A I *D BUFx2_ASAP7_75t_R
*I *173:A I *D OR3x1_ASAP7_75t_R
*I *177:A I *D AND2x2_ASAP7_75t_R
*I *176:A I *D AND2x2_ASAP7_75t_R
*I *183:A I *D AND4x2_ASAP7_75t_R
*I *243:QN O *D DFFLQNx2_ASAP7_75t_R
*CAP
1 *356:A 0
2 *173:A 1.21997e-06
3 *177:A 0
4 *176:A 0
5 *183:A 0
6 *243:QN 1.36804e-05
7 *2:68 3.58277e-05
8 *2:53 3.51283e-05
9 *2:42 3.83528e-05
10 *2:38 3.01098e-05
11 *2:27 6.20749e-06
12 *2:19 4.12354e-05
13 *2:12 9.36251e-06
14 *2:10 5.29505e-05
15 *2:8 3.08033e-05
16 *173:A *173:C 5.22376e-07
17 *173:A *89:8 3.68287e-06
18 *2:8 *71:12 0
19 *2:10 *4:36 5.37569e-06
20 *2:10 *4:47 1.2632e-05
21 *2:10 *4:58 3.47607e-06
22 *2:10 *139:204 0
23 *2:27 *139:204 2.71272e-05
24 *2:38 *3:39 8.46363e-06
25 *2:38 *87:37 1.49407e-08
26 *2:38 *139:204 0
27 *2:38 *142:8 2.66045e-05
28 *2:42 *3:39 2.71839e-06
29 *2:53 *3:39 1.1199e-05
30 *2:53 *96:12 3.91447e-06
31 *2:68 *225:A 1.28905e-05
32 *2:68 *4:58 6.54416e-06
33 *2:68 *97:25 3.71468e-06
34 *2:68 *139:204 0
35 *2:68 *146:8 6.86929e-06
*RES
1 *243:QN *2:8 40.2831 
2 *2:8 *2:10 16.3318 
3 *2:10 *2:12 17.2 
4 *2:12 *183:A 17.2 
5 *2:12 *2:19 4.81343 
6 *2:19 *2:27 44.4803 
7 *2:27 *176:A 17.2 
8 *2:19 *2:38 35.3027 
9 *2:38 *2:42 19.3393 
10 *2:42 *177:A 17.2 
11 *2:42 *2:53 41.9757 
12 *2:53 *173:A 35.4697 
13 *2:10 *2:68 43.7465 
14 *2:68 *356:A 17.2 
*END

*D_NET *3 0.000394262
*CONN
*I *181:A1 I *D AO32x1_ASAP7_75t_R
*I *180:C I *D AOI221x1_ASAP7_75t_R
*I *225:A I *D XOR2x1_ASAP7_75t_R
*I *183:D I *D AND4x2_ASAP7_75t_R
*I *246:QN O *D DFFLQNx2_ASAP7_75t_R
*CAP
1 *181:A1 1.42445e-05
2 *180:C 0
3 *225:A 2.58349e-05
4 *183:D 0
5 *246:QN 0
6 *3:45 8.96845e-06
7 *3:39 3.14096e-05
8 *3:33 6.90278e-05
9 *3:16 2.64215e-05
10 *3:10 8.22254e-05
11 *3:4 6.23111e-05
12 *181:A1 *181:B1 0
13 *181:A1 *81:18 1.21496e-05
14 *181:A1 *96:12 0
15 *181:A1 *142:8 6.33206e-07
16 *225:A *146:8 1.53057e-06
17 *3:10 *73:24 0
18 *3:10 *87:12 0
19 *3:10 *97:8 4.57263e-07
20 *3:16 *97:8 3.86118e-06
21 *3:33 *352:A 3.1923e-06
22 *3:33 *73:24 0
23 *3:39 *81:18 4.74336e-06
24 *3:39 *139:204 0
25 *3:39 *142:8 4.88493e-06
26 *3:45 *93:8 0
27 *3:45 *96:12 7.09459e-06
28 *176:B *3:16 0
29 *1:23 *3:16 0
30 *2:38 *3:39 8.46363e-06
31 *2:42 *3:39 2.71839e-06
32 *2:53 *3:39 1.1199e-05
33 *2:68 *225:A 1.28905e-05
*RES
1 *246:QN *3:4 17.2 
2 *3:4 *3:10 30.7974 
3 *3:10 *3:16 34.8812 
4 *3:16 *183:D 17.2 
5 *3:10 *225:A 35.6515 
6 *3:4 *3:33 31.6403 
7 *3:33 *3:39 35.1893 
8 *3:39 *3:45 42.2843 
9 *3:45 *180:C 17.2 
10 *3:33 *181:A1 46.1415 
*END

*D_NET *4 0.00073915
*CONN
*I *167:A I *D NAND2x1_ASAP7_75t_R
*I *168:A1 I *D OA211x2_ASAP7_75t_R
*I *172:A1 I *D OA211x2_ASAP7_75t_R
*I *170:A I *D NAND2x1_ASAP7_75t_R
*I *183:B I *D AND4x2_ASAP7_75t_R
*I *353:A I *D BUFx3_ASAP7_75t_R
*I *178:A I *D AND2x2_ASAP7_75t_R
*I *174:A I *D AND2x2_ASAP7_75t_R
*I *244:QN O *D DFFLQNx2_ASAP7_75t_R
*CAP
1 *167:A 1.29765e-05
2 *168:A1 4.05053e-06
3 *172:A1 1.39606e-06
4 *170:A 0
5 *183:B 2.52259e-06
6 *353:A 1.94782e-05
7 *178:A 2.07914e-06
8 *174:A 0
9 *244:QN 3.09473e-05
10 *4:84 2.44986e-05
11 *4:70 1.75682e-05
12 *4:62 3.37991e-05
13 *4:58 4.66151e-05
14 *4:47 3.56155e-05
15 *4:36 4.71793e-05
16 *4:25 4.30066e-05
17 *4:14 5.53651e-05
18 *4:8 6.43018e-05
19 *167:A *82:10 1.34257e-05
20 *167:A *97:36 1.16564e-05
21 *172:A1 *172:A2 2.90209e-08
22 *172:A1 *87:48 1.73158e-06
23 *178:A *178:B 1.36155e-06
24 *4:14 *139:204 0
25 *4:25 *71:31 1.908e-06
26 *4:25 *142:8 0
27 *4:36 *71:20 0
28 *4:36 *139:204 0
29 *4:58 *97:25 7.40946e-06
30 *4:58 *97:36 1.85834e-05
31 *4:58 *139:204 0
32 *4:62 *172:A2 2.61188e-06
33 *4:62 *87:48 5.49729e-05
34 *4:70 *172:A2 5.79724e-07
35 *4:70 *84:8 1.40419e-08
36 *4:70 *84:16 0
37 *4:70 *86:8 0
38 *4:70 *87:56 3.05118e-08
39 *4:84 *97:36 1.26211e-05
40 *176:B *353:A 5.0551e-07
41 *176:B *4:47 1.692e-05
42 *176:B *4:58 6.97416e-06
43 *1:23 *4:58 6.94301e-05
44 *1:47 *168:A1 3.56648e-06
45 *1:47 *4:58 2.33787e-05
46 *1:47 *4:84 2.20127e-05
47 *1:53 *4:70 0
48 *2:10 *4:36 5.37569e-06
49 *2:10 *4:47 1.2632e-05
50 *2:10 *4:58 3.47607e-06
51 *2:68 *4:58 6.54416e-06
*RES
1 *244:QN *4:8 47.7706 
2 *4:8 *4:14 25.8989 
3 *4:14 *174:A 17.2 
4 *4:14 *4:25 41.6072 
5 *4:25 *178:A 35.4697 
6 *4:8 *4:36 12.9528 
7 *4:36 *353:A 46.701 
8 *4:36 *4:47 10.137 
9 *4:47 *183:B 35.4697 
10 *4:47 *4:58 33.2268 
11 *4:58 *4:62 33.7796 
12 *4:62 *4:70 44.4803 
13 *4:70 *170:A 17.2 
14 *4:62 *172:A1 18.2696 
15 *4:58 *4:84 10.137 
16 *4:84 *168:A1 37.0741 
17 *4:84 *167:A 46.0848 
*END

*D_NET *5 0.000206684
*CONN
*I *217:A I *D NOR2x1_ASAP7_75t_R
*I *169:A I *D INVx1_ASAP7_75t_R
*I *242:QN O *D DFFLQNx2_ASAP7_75t_R
*CAP
1 *217:A 0
2 *169:A 0
3 *242:QN 3.80278e-05
4 *5:16 3.50164e-05
5 *5:10 4.65455e-05
6 *5:6 4.95569e-05
7 *5:10 *58:8 2.68933e-07
8 *5:10 *141:36 3.61852e-06
9 *5:16 *7:12 5.74614e-06
10 *5:16 *35:12 2.71199e-05
11 *5:16 *141:36 7.84037e-07
*RES
1 *242:QN *5:6 34.8492 
2 *5:6 *5:10 25.0843 
3 *5:10 *5:16 44.4834 
4 *5:16 *169:A 17.2 
5 *5:10 *217:A 34.4 
*END

*D_NET *6 0.000276756
*CONN
*I *179:A2 I *D AO21x1_ASAP7_75t_R
*I *215:A I *D NOR2x1_ASAP7_75t_R
*I *241:QN O *D DFFLQNx2_ASAP7_75t_R
*CAP
1 *179:A2 2.09803e-05
2 *215:A 0
3 *241:QN 4.99841e-05
4 *6:21 6.02278e-05
5 *6:10 4.71252e-05
6 *6:6 5.78618e-05
7 *179:A2 *179:B 5.41446e-06
8 *179:A2 *95:10 1.27782e-06
9 *179:A2 *131:12 3.03306e-06
10 *6:6 *241:D 0
11 *6:10 *138:153 5.00394e-06
12 *6:10 *139:242 0
13 *6:10 *139:246 7.09459e-06
14 *6:10 *142:83 7.84037e-07
15 *6:21 *211:A 5.52807e-07
16 *6:21 *8:21 4.5868e-06
17 *6:21 *94:8 0
18 *6:21 *138:153 5.58366e-06
19 *6:21 *139:259 0
20 *6:21 *142:83 7.24542e-06
*RES
1 *241:QN *6:6 38.0582 
2 *6:6 *6:10 25.0843 
3 *6:10 *215:A 34.4 
4 *6:10 *6:21 48.1741 
5 *6:21 *179:A2 31.1054 
*END

*D_NET *7 0.000157989
*CONN
*I *213:A I *D NOR2x1_ASAP7_75t_R
*I *170:B I *D NAND2x1_ASAP7_75t_R
*I *240:QN O *D DFFLQNx2_ASAP7_75t_R
*CAP
1 *213:A 2.67457e-05
2 *170:B 0
3 *240:QN 0
4 *7:12 4.11023e-05
5 *7:6 6.7848e-05
6 *213:A *213:B 0
7 *7:12 *85:8 1.65465e-05
8 *5:16 *7:12 5.74614e-06
*RES
1 *240:QN *7:6 34.4 
2 *7:6 *7:12 49.6296 
3 *7:12 *170:B 17.2 
4 *7:6 *213:A 48.6172 
*END

*D_NET *8 0.000217502
*CONN
*I *178:B I *D AND2x2_ASAP7_75t_R
*I *211:A I *D NOR2x1_ASAP7_75t_R
*I *239:QN O *D DFFLQNx2_ASAP7_75t_R
*CAP
1 *178:B 3.67588e-05
2 *211:A 5.35086e-06
3 *239:QN 4.55954e-05
4 *8:21 4.83141e-05
5 *8:8 1.69062e-05
6 *8:6 4.55954e-05
7 *178:B *63:20 6.7842e-07
8 *178:B *71:31 5.22376e-07
9 *211:A *139:259 5.49212e-07
10 *8:6 *239:D 0
11 *8:21 *34:10 4.10928e-06
12 *8:21 *139:259 6.62106e-06
13 *178:A *178:B 1.36155e-06
14 *6:21 *211:A 5.52807e-07
15 *6:21 *8:21 4.5868e-06
*RES
1 *239:QN *8:6 38.0582 
2 *8:6 *8:8 17.2 
3 *8:8 *211:A 37.779 
4 *8:8 *8:21 29.5897 
5 *8:21 *178:B 38.593 
*END

*D_NET *9 5.30717e-05
*CONN
*I *209:A I *D NOR2x1_ASAP7_75t_R
*I *166:A I *D INVx1_ASAP7_75t_R
*I *238:QN O *D DFFLQNx2_ASAP7_75t_R
*CAP
1 *209:A 2.73988e-06
2 *166:A 1.60537e-05
3 *238:QN 5.35952e-06
4 *9:8 2.41531e-05
5 *166:A *97:36 0
6 *166:A *140:12 0
7 *166:A *141:10 2.20128e-06
8 *209:A *54:6 5.0551e-07
9 *9:8 *350:A 0
10 *9:8 *140:12 0
11 *9:8 *141:10 2.05883e-06
*RES
1 *238:QN *9:8 38.9053 
2 *9:8 *166:A 43.8888 
3 *9:8 *209:A 36.0045 
*END

*D_NET *10 0.000211984
*CONN
*I *175:A2 I *D AO21x1_ASAP7_75t_R
*I *207:A I *D NOR2x1_ASAP7_75t_R
*I *237:QN O *D DFFLQNx2_ASAP7_75t_R
*CAP
1 *175:A2 1.97939e-06
2 *207:A 8.02194e-06
3 *237:QN 2.05977e-05
4 *10:21 5.12621e-05
5 *10:8 7.79024e-05
6 *175:A2 *175:B 1.35684e-06
7 *207:A *207:B 2.28976e-06
8 *207:A *53:12 0
9 *207:A *67:8 7.54709e-06
10 *10:8 *32:14 0
11 *10:21 *32:10 6.10236e-07
12 *10:21 *53:12 0
13 *10:21 *67:8 1.50555e-05
14 *10:21 *90:8 1.63901e-05
15 *10:21 *139:204 6.7126e-06
16 *10:21 *139:208 2.25787e-06
17 *10:21 *142:8 0
*RES
1 *237:QN *10:8 43.492 
2 *10:8 *207:A 41.6361 
3 *10:8 *10:21 38.8585 
4 *10:21 *175:A2 35.4697 
*END

*D_NET *11 0.000119977
*CONN
*I *205:A I *D NOR2x1_ASAP7_75t_R
*I *167:B I *D NAND2x1_ASAP7_75t_R
*I *236:QN O *D DFFLQNx2_ASAP7_75t_R
*CAP
1 *205:A 5.78318e-06
2 *167:B 0
3 *236:QN 1.40051e-05
4 *11:16 3.40254e-05
5 *11:10 3.98086e-05
6 *11:8 1.40051e-05
7 *205:A *141:25 6.70433e-06
8 *11:8 *242:CLK 0
9 *11:8 *138:75 0
10 *11:16 *139:16 0
11 *11:16 *141:23 5.52807e-07
12 *11:16 *141:25 5.09299e-06
*RES
1 *236:QN *11:8 42.2843 
2 *11:8 *11:10 17.2 
3 *11:10 *11:16 40.4279 
4 *11:16 *167:B 34.4 
5 *11:10 *205:A 22.0134 
*END

*D_NET *12 0.000234085
*CONN
*I *174:B I *D AND2x2_ASAP7_75t_R
*I *203:A I *D NOR2x1_ASAP7_75t_R
*I *235:QN O *D DFFLQNx2_ASAP7_75t_R
*CAP
1 *174:B 0
2 *203:A 0
3 *235:QN 1.1484e-05
4 *12:27 2.05587e-05
5 *12:18 1.18988e-06
6 *12:12 4.35918e-05
7 *12:8 7.44446e-05
8 *12:8 *67:8 0
9 *12:8 *142:20 3.53985e-05
10 *12:12 *138:140 1.77261e-05
11 *12:27 *139:204 0
12 *12:27 *139:208 0
13 *12:27 *142:16 2.0153e-05
14 *12:27 *142:20 9.53863e-06
*RES
1 *235:QN *12:8 46.3203 
2 *12:8 *12:12 33.2164 
3 *12:12 *12:18 35.057 
4 *12:18 *203:A 17.2 
5 *12:8 *12:27 34.5643 
6 *12:27 *174:B 17.2 
*END

*D_NET *13 0.000144553
*CONN
*I *153:A I *D INVx1_ASAP7_75t_R
*I *201:A I *D NOR2x1_ASAP7_75t_R
*I *234:QN O *D DFFLQNx2_ASAP7_75t_R
*CAP
1 *153:A 1.90853e-05
2 *201:A 3.26707e-05
3 *234:QN 0
4 *13:10 4.1492e-05
5 *13:4 2.79066e-05
6 *201:A *50:8 1.14488e-05
7 *13:10 *139:123 1.19496e-05
*RES
1 *234:QN *13:4 17.2 
2 *13:4 *13:10 43.4107 
3 *13:10 *201:A 32.7099 
4 *13:4 *153:A 25.2224 
*END

*D_NET *14 0.000123269
*CONN
*I *162:A I *D INVx1_ASAP7_75t_R
*I *199:A I *D NOR2x1_ASAP7_75t_R
*I *233:QN O *D DFFLQNx2_ASAP7_75t_R
*CAP
1 *162:A 1.19418e-05
2 *199:A 8.44685e-06
3 *233:QN 1.64778e-05
4 *14:10 3.68664e-05
5 *162:A *137:18 0
6 *162:A *137:22 0
7 *162:A *142:60 1.54257e-05
8 *199:A *199:B 8.87763e-06
9 *199:A *49:6 3.05302e-06
10 *14:10 *44:12 9.08513e-06
11 *14:10 *44:18 6.94376e-06
12 *14:10 *142:45 4.88493e-06
13 *14:10 *142:60 1.26641e-06
*RES
1 *233:QN *14:10 46.0848 
2 *14:10 *199:A 39.2134 
3 *14:10 *162:A 46.2265 
*END

*D_NET *15 9.16682e-05
*CONN
*I *149:A I *D INVx1_ASAP7_75t_R
*I *197:A I *D NOR2x1_ASAP7_75t_R
*I *232:QN O *D DFFLQNx2_ASAP7_75t_R
*CAP
1 *149:A 1.90853e-05
2 *197:A 0
3 *232:QN 0
4 *15:12 2.11493e-05
5 *15:4 4.02346e-05
6 *15:12 *139:121 0
7 *15:12 *140:18 6.0212e-06
8 *15:12 *140:22 5.17782e-06
*RES
1 *232:QN *15:4 17.2 
2 *15:4 *15:12 45.8014 
3 *15:12 *197:A 17.2 
4 *15:4 *149:A 25.2224 
*END

*D_NET *16 0.000174225
*CONN
*I *159:A I *D INVx1_ASAP7_75t_R
*I *195:A I *D NOR2x1_ASAP7_75t_R
*I *231:QN O *D DFFLQNx2_ASAP7_75t_R
*CAP
1 *159:A 0
2 *195:A 0
3 *231:QN 0
4 *16:23 6.55289e-05
5 *16:12 1.31056e-05
6 *16:4 7.86345e-05
7 *16:12 *47:8 5.37569e-06
8 *16:12 *140:24 5.68573e-06
9 *16:23 *187:A1 0
10 *16:23 *187:A2 2.66797e-07
11 *16:23 *42:22 1.52651e-06
12 *16:23 *76:8 4.1009e-06
*RES
1 *231:QN *16:4 17.2 
2 *16:4 *16:12 43.7188 
3 *16:12 *195:A 17.2 
4 *16:4 *16:23 48.9247 
5 *16:23 *159:A 34.4 
*END

*D_NET *17 0.000179215
*CONN
*I *154:B I *D NAND2x1_ASAP7_75t_R
*I *192:A I *D NOR2x1_ASAP7_75t_R
*I *230:QN O *D DFFLQNx2_ASAP7_75t_R
*CAP
1 *154:B 4.95801e-06
2 *192:A 3.47006e-06
3 *230:QN 0
4 *17:27 3.18162e-05
5 *17:10 3.75102e-05
6 *17:4 6.08983e-05
7 *154:B *21:23 2.90209e-08
8 *154:B *145:53 3.56648e-06
9 *192:A *45:10 2.27303e-05
10 *192:A *78:14 2.12481e-06
11 *192:A *137:6 1.56713e-06
12 *192:A *142:60 5.34278e-06
13 *17:10 *21:23 0
14 *17:10 *21:29 0
15 *17:10 *45:10 0
16 *17:27 *164:A1 3.16603e-06
17 *17:27 *21:23 0
18 *17:27 *145:53 1.51653e-06
19 *17:27 *145:59 5.19552e-07
*RES
1 *230:QN *17:4 17.2 
2 *17:4 *17:10 34.063 
3 *17:10 *192:A 41.3527 
4 *17:4 *17:27 48.4472 
5 *17:27 *154:B 20.409 
*END

*D_NET *18 8.80249e-05
*CONN
*I *163:B I *D NAND2x1_ASAP7_75t_R
*I *190:A I *D NOR2x1_ASAP7_75t_R
*I *229:QN O *D DFFLQNx2_ASAP7_75t_R
*CAP
1 *163:B 1.23091e-05
2 *190:A 5.94671e-06
3 *229:QN 2.57566e-05
4 *18:8 4.40125e-05
*RES
1 *229:QN *18:8 46.701 
2 *18:8 *190:A 37.779 
3 *18:8 *163:B 44.537 
*END

*D_NET *19 0.000130069
*CONN
*I *188:A I *D NOR2x1_ASAP7_75t_R
*I *150:B I *D NAND2x1_ASAP7_75t_R
*I *228:QN O *D DFFLQNx2_ASAP7_75t_R
*CAP
1 *188:A 0
2 *150:B 8.89256e-06
3 *228:QN 2.82138e-05
4 *19:10 1.28702e-05
5 *19:8 3.21915e-05
6 *150:B *43:12 0
7 *150:B *100:17 3.06142e-05
8 *19:8 *138:47 5.33594e-06
9 *19:10 *43:12 0
10 *19:10 *100:17 1.19507e-05
*RES
1 *228:QN *19:8 47.7706 
2 *19:8 *19:10 4.50533 
3 *19:10 *150:B 44.537 
4 *19:10 *188:A 34.4 
*END

*D_NET *20 9.05037e-05
*CONN
*I *186:A I *D NOR2x1_ASAP7_75t_R
*I *160:B I *D NAND2x1_ASAP7_75t_R
*I *227:QN O *D DFFLQNx2_ASAP7_75t_R
*CAP
1 *186:A 4.52564e-06
2 *160:B 2.04638e-05
3 *227:QN 1.19928e-05
4 *20:8 3.69823e-05
5 *160:B *42:14 1.13442e-05
6 *160:B *145:114 0
7 *186:A *42:14 5.19498e-06
*RES
1 *227:QN *20:8 39.2134 
2 *20:8 *160:B 49.4071 
3 *20:8 *186:A 38.9053 
*END

*D_NET *21 0.000454381
*CONN
*I *347:A I *D BUFx4_ASAP7_75t_R
*I *348:A I *D BUFx4_ASAP7_75t_R
*I *182:Y O *D BUFx4_ASAP7_75t_R
*CAP
1 *347:A 0
2 *348:A 0
3 *182:Y 1.47577e-05
4 *21:29 1.48095e-05
5 *21:23 0.000114749
6 *21:21 9.99396e-05
7 *21:14 3.86028e-05
8 *21:8 5.33605e-05
9 *21:8 *61:14 0
10 *21:8 *143:38 1.12894e-06
11 *21:8 *143:51 2.22736e-06
12 *21:8 *145:28 1.30506e-05
13 *21:14 *220:B 5.25794e-06
14 *21:14 *71:44 0
15 *21:14 *87:18 5.49212e-07
16 *21:14 *143:16 2.00202e-06
17 *21:14 *143:38 1.07368e-06
18 *21:23 *223:A1 1.81703e-05
19 *21:23 *71:48 1.2566e-05
20 *21:23 *74:10 3.37545e-05
21 *21:23 *145:53 2.09987e-05
22 *21:23 *145:59 7.35354e-06
23 *21:29 *145:59 0
24 *154:B *21:23 2.90209e-08
25 *17:10 *21:23 0
26 *17:10 *21:29 0
27 *17:27 *21:23 0
*RES
1 *182:Y *21:8 46.2265 
2 *21:8 *21:14 40.7643 
3 *21:14 *348:A 17.2 
4 *21:8 *21:21 17.2 
5 *21:21 *21:23 49.7387 
6 *21:23 *21:29 44.537 
7 *21:29 *347:A 17.2 
*END

*D_NET *22 2.84393e-05
*CONN
*I *227:D I *D DFFLQNx2_ASAP7_75t_R
*I *187:Y O *D AO21x1_ASAP7_75t_R
*CAP
1 *227:D 5.94093e-06
2 *187:Y 7.49434e-06
3 *22:8 1.34353e-05
4 *22:8 *42:22 1.56881e-06
*RES
1 *187:Y *22:8 38.9053 
2 *22:8 *227:D 37.0741 
*END

*D_NET *23 0.000127703
*CONN
*I *228:D I *D DFFLQNx2_ASAP7_75t_R
*I *189:Y O *D AO21x1_ASAP7_75t_R
*CAP
1 *228:D 2.6542e-05
2 *189:Y 7.14907e-06
3 *23:10 3.36911e-05
4 *228:D *138:47 5.06431e-05
5 *23:10 *43:12 9.67723e-06
*RES
1 *189:Y *23:10 38.8486 
2 *23:10 *228:D 49.9099 